
     RDKit          3D

 19 21  0  0  0  0  0  0  0  0999 V2000
   -1.5020  -10.3810   22.7280 C   0  0  0  0  0  0  0  0  0  0  0  0
   -3.5720  -11.2300   21.7330 C   0  0  0  0  0  0  0  0  0  0  0  0
   -3.3340  -12.3490   15.7810 C   0  0  0  0  0  0  0  0  0  0  0  0
   -4.0670  -11.8750   18.0330 C   0  0  0  0  0  0  0  0  0  0  0  0
   -2.5140  -12.0140   14.6600 C   0  0  0  0  0  0  0  0  0  0  0  0
   -1.7780  -10.8930   14.5630 N   0  0  0  0  0  0  0  0  0  0  0  0
   -4.2740  -11.5760   20.3770 C   0  0  0  0  0  0  0  0  0  0  0  0
   -2.0860  -11.0850   21.5920 C   0  0  0  0  0  0  0  0  0  0  0  0
   -3.6300  -11.2890   19.2050 C   0  0  0  0  0  0  0  0  0  0  0  0
   -0.8730   -8.9800   15.3620 O   0  0  0  0  0  0  0  0  0  0  0  0
   -0.5840   -9.6900   20.2980 O   0  0  0  0  0  0  0  0  0  0  0  0
   -0.2350   -8.8280   13.9950 C   0  0  0  0  0  0  0  0  0  0  0  0
   -2.4950  -10.3220   16.7840 C   0  0  0  0  0  0  0  0  0  0  0  0
   -1.7030  -10.0450   15.5930 C   0  0  0  0  0  0  0  0  0  0  0  0
   -2.4420   -9.4250   18.0620 C   0  0  0  0  0  0  0  0  0  0  0  0
   -1.4540   -8.2730   18.2070 C   0  0  0  0  0  0  0  0  0  0  0  0
   -2.4970  -10.3890   19.2530 N   0  0  0  0  0  0  0  0  0  0  0  0
   -3.3180  -11.4890   16.8290 C   0  0  0  0  0  0  0  0  0  0  0  0
   -1.6510  -10.3250   20.3850 C   0  0  0  0  0  0  0  0  0  0  0  0
  3 18  4  0
  5  3  4  0
  6  5  4  0
  6 14  4  0
  7  2  1  0
  8  2  1  0
  8  1  1  0
  9  4  1  0
  9 17  1  0
  9  7  1  0
 10 14  1  0
 11 19  2  0
 12 10  1  0
 13 18  4  0
 13 15  1  0
 14 13  4  0
 15 16  1  0
 15 17  1  0
 17 19  1  0
 18  4  1  0
 19  8  1  0
M  END
$$$$

     RDKit          3D

 32 36  0  0  0  0  0  0  0  0999 V2000
    0.6180   -8.2170   12.9960 C   0  0  0  0  0  0  0  0  0  0  0  0
   -2.7840  -10.2820   23.3810 N   0  0  0  0  0  0  0  0  0  0  0  0
   -3.6020  -10.8420   21.0100 C   0  0  0  0  0  0  0  0  0  0  0  0
    2.3030   -7.7630   11.5460 C   0  0  0  0  0  0  0  0  0  0  0  0
   -1.0050   -9.4530   16.3050 C   0  0  0  0  0  0  0  0  0  0  0  0
    1.0310   -8.4540   11.7170 C   0  0  0  0  0  0  0  0  0  0  0  0
   -4.9510  -11.7290   23.2120 C   0  0  0  0  0  0  0  0  0  0  0  0
   -3.6490  -12.6080   14.8290 C   0  0  0  0  0  0  0  0  0  0  0  0
    1.5510   -7.0840   13.4320 N   0  0  0  0  0  0  0  0  0  0  0  0
   -0.8720  -11.7370   16.2930 C   0  0  0  0  0  0  0  0  0  0  0  0
   -2.0330  -10.6170   14.5270 C   0  0  0  0  0  0  0  0  0  0  0  0
   -5.1520  -10.8650   24.2500 F   0  0  0  0  0  0  0  0  0  0  0  0
   -3.2410  -10.9410   18.1160 C   0  0  0  0  0  0  0  0  0  0  0  0
   -3.6240  -11.0740   22.4930 C   0  0  0  0  0  0  0  0  0  0  0  0
    2.6700   -7.0630   12.3990 O   0  0  0  0  0  0  0  0  0  0  0  0
   -3.4480  -12.4680   16.3340 C   0  0  0  0  0  0  0  0  0  0  0  0
   -2.3950  -10.2530   18.9640 C   0  0  0  0  0  0  0  0  0  0  0  0
   -0.2370  -10.0880   23.0800 C   0  0  0  0  0  0  0  0  0  0  0  0
   -4.8060  -12.5730   15.7600 C   0  0  0  0  0  0  0  0  0  0  0  0
   -0.1910   -8.6630   15.3630 C   0  0  0  0  0  0  0  0  0  0  0  0
   -3.2640  -11.3210   14.1830 O   0  0  0  0  0  0  0  0  0  0  0  0
   -1.6310   -9.4660   22.9300 C   0  0  0  0  0  0  0  0  0  0  0  0
   -0.2720   -8.9320   13.9910 C   0  0  0  0  0  0  0  0  0  0  0  0
   -4.3760  -12.8170   23.8560 C   0  0  0  0  0  0  0  0  0  0  0  0
   -2.5740  -10.2310   20.3270 C   0  0  0  0  0  0  0  0  0  0  0  0
   -1.3220   -9.8340   13.5980 C   0  0  0  0  0  0  0  0  0  0  0  0
   -1.7500  -10.6900   15.9760 C   0  0  0  0  0  0  0  0  0  0  0  0
   -5.8770  -11.9720   22.5510 F   0  0  0  0  0  0  0  0  0  0  0  0
   -4.3170  -11.5270   18.8190 C   0  0  0  0  0  0  0  0  0  0  0  0
   -1.6840   -8.1620   22.2780 C   0  0  0  0  0  0  0  0  0  0  0  0
   -3.1580  -11.0240   16.6100 C   0  0  0  0  0  0  0  0  0  0  0  0
   -4.5810  -11.4130   20.1910 C   0  0  0  0  0  0  0  0  0  0  0  0
  1  9  2  0
  1 23  1  0
  3 14  1  0
  4  6  1  0
  4 15  1  0
  6  1  1  0
  7 24  1  0
  7 12  1  0
  8 19  1  0
  8 16  1  0
 11 27  1  0
 13 29  4  0
 13 17  4  0
 14  7  1  0
 14  2  1  0
 15  9  1  0
 16 19  1  0
 16 31  1  0
 17 25  4  0
 20  5  1  0
 21 11  1  0
 21  8  1  0
 22 18  1  0
 22  2  1  0
 23 20  2  0
 25  3  4  0
 26 23  1  0
 26 11  2  0
 27 10  1  0
 27  5  1  0
 27 31  1  0
 28  7  1  0
 29 32  4  0
 30 22  1  0
 31 13  1  0
 32  3  4  0
M  END
$$$$

     RDKit          3D

 21 23  0  0  0  0  0  0  0  0999 V2000
    0.0850   -9.3620   12.7700 O   0  0  0  0  0  0  0  0  0  0  0  0
   -0.5290   -9.4840   21.8460 C   0  0  0  0  0  0  0  0  0  0  0  0
   -2.1910   -9.9820   17.7000 C   0  0  0  0  0  0  0  0  0  0  0  0
   -2.0080  -10.1270   20.1720 C   0  0  0  0  0  0  0  0  0  0  0  0
   -0.0130   -8.8490   13.9490 C   0  0  0  0  0  0  0  0  0  0  0  0
   -2.8100  -10.9840   21.2160 C   0  0  0  0  0  0  0  0  0  0  0  0
   -1.7350  -10.2650   15.0810 C   0  0  0  0  0  0  0  0  0  0  0  0
    0.5540   -7.7790   14.2130 O   0  0  0  0  0  0  0  0  0  0  0  0
   -2.6820  -10.4880   19.0420 C   0  0  0  0  0  0  0  0  0  0  0  0
   -2.3420  -10.7260   16.3580 C   0  0  0  0  0  0  0  0  0  0  0  0
   -3.7220  -11.4760   14.5720 C   0  0  0  0  0  0  0  0  0  0  0  0
   -1.1350  -10.4320   22.7060 C   0  0  0  0  0  0  0  0  0  0  0  0
   -3.4760  -12.4890   15.5600 C   0  0  0  0  0  0  0  0  0  0  0  0
   -0.7410   -9.4280   14.9860 N   0  0  0  0  0  0  0  0  0  0  0  0
   -2.2920  -11.0880   22.4050 C   0  0  0  0  0  0  0  0  0  0  0  0
   -3.9570  -11.2920   19.1910 C   0  0  0  0  0  0  0  0  0  0  0  0
   -4.0310  -11.7100   20.6610 O   0  0  0  0  0  0  0  0  0  0  0  0
   -2.4110  -10.9050   14.0090 C   0  0  0  0  0  0  0  0  0  0  0  0
   -0.3610  -10.8240   23.7530 F   0  0  0  0  0  0  0  0  0  0  0  0
   -2.5330  -12.1510   16.6430 C   0  0  0  0  0  0  0  0  0  0  0  0
   -0.9830   -9.3720   20.5330 C   0  0  0  0  0  0  0  0  0  0  0  0
  1  5  2  0
  2 12  4  0
  3  9  1  0
  4 21  4  0
  4  6  4  0
  5  8  1  0
  5 14  1  0
  6 15  4  0
  7 10  1  0
  9 16  4  0
  9  4  4  0
 10 20  1  0
 10  3  1  0
 11 13  1  0
 12 19  1  0
 13 20  1  0
 14  7  2  3
 15 12  4  0
 16 17  4  0
 17  6  4  0
 18 11  1  0
 18  7  1  0
 21  2  4  0
M  END
$$$$

     RDKit          3D

 11 13  0  0  0  0  0  0  0  0999 V2000
   -3.6740  -11.6920   17.5410 C   0  0  0  0  0  0  0  0  0  0  0  0
   -1.6770  -10.2350   13.7710 N   0  0  0  0  0  0  0  0  0  0  0  0
   -1.8320  -10.3720   15.3110 C   0  0  0  0  0  0  0  0  0  0  0  0
   -0.6280   -9.5950   15.7890 C   0  0  0  0  0  0  0  0  0  0  0  0
   -2.8520  -10.7000   17.6650 N   0  0  0  0  0  0  0  0  0  0  0  0
   -0.5850   -9.4240   13.4660 C   0  0  0  0  0  0  0  0  0  0  0  0
   -3.6210  -12.1240   15.8040 C   0  0  0  0  0  0  0  0  0  0  0  0
   -4.4570  -12.5220   16.9050 C   0  0  0  0  0  0  0  0  0  0  0  0
   -3.5960  -12.4250   14.5360 O   0  0  0  0  0  0  0  0  0  0  0  0
   -0.2080   -8.5210   14.4830 C   0  0  0  0  0  0  0  0  0  0  0  0
   -2.6760  -10.9150   16.1660 C   0  0  0  0  0  0  0  0  0  0  0  0
  1  8  1  0
  1  5  1  0
  2  3  2  0
  3  4  1  0
  3 11  1  0
  6  2  1  0
  6 10  1  0
  7  9  1  0
  7 11  1  0
  7  8  1  0
  7  1  1  0
 10  4  1  0
 11  5  2  0
M  END
$$$$

     RDKit          3D

 25 27  0  0  0  0  0  0  0  0999 V2000
   -3.4200  -10.2340   20.6600 C   0  0  0  0  0  0  0  0  0  0  0  0
   -2.2250  -10.5090   14.6780 N   0  0  0  0  0  0  0  0  0  0  0  0
   -1.1120   -9.3800   16.3960 C   0  0  0  0  0  0  0  0  0  0  0  0
   -3.7950  -13.7210   16.0320 N   0  0  0  0  0  0  0  0  0  0  0  0
   -1.3000   -9.4710   23.7500 N   0  0  0  0  0  0  0  0  0  0  0  0
   -0.4430  -10.2470   22.8780 C   0  0  0  0  0  0  0  0  0  0  0  0
   -1.6740  -10.5560   13.4130 N   0  0  0  0  0  0  0  0  0  0  0  0
   -0.5980   -9.6060   13.5540 C   0  0  0  0  0  0  0  0  0  0  0  0
   -0.2810   -8.7150   17.1590 O   0  0  0  0  0  0  0  0  0  0  0  0
   -4.5820  -11.7790   21.6850 N   0  0  0  0  0  0  0  0  0  0  0  0
   -4.0390  -11.3280   23.8630 O   0  0  0  0  0  0  0  0  0  0  0  0
   -2.2160  -10.1400   16.9970 C   0  0  0  0  0  0  0  0  0  0  0  0
   -0.5670   -8.1400   24.1460 C   0  0  0  0  0  0  0  0  0  0  0  0
   -2.6750   -9.5980   19.4690 C   0  0  0  0  0  0  0  0  0  0  0  0
   -2.6440   -8.9640   23.1390 C   0  0  0  0  0  0  0  0  0  0  0  0
    0.3070   -7.5590   16.6640 C   0  0  0  0  0  0  0  0  0  0  0  0
   -5.4860  -12.9500   21.9570 C   0  0  0  0  0  0  0  0  0  0  0  0
   -4.3410  -11.2420   20.5180 N   0  0  0  0  0  0  0  0  0  0  0  0
   -4.5300  -12.7160   15.3450 C   0  0  0  0  0  0  0  0  0  0  0  0
   -4.1940  -11.4530   16.1070 C   0  0  0  0  0  0  0  0  0  0  0  0
   -2.3450  -10.4840   18.2530 C   0  0  0  0  0  0  0  0  0  0  0  0
   -4.0370  -11.0380   22.6580 C   0  0  0  0  0  0  0  0  0  0  0  0
   -2.9510  -10.8070   15.7560 C   0  0  0  0  0  0  0  0  0  0  0  0
   -1.0230   -9.4470   14.9320 N   0  0  0  0  0  0  0  0  0  0  0  0
   -3.3010  -10.0180   22.1090 C   0  0  0  0  0  0  0  0  0  0  0  0
  1 25  1  0
  2 24  1  0
  2 23  1  0
  3 12  1  0
  3  9  1  0
  5 13  1  0
  6  5  1  0
  7  8  1  0
  7  2  1  0
 10 17  1  0
 10 22  1  0
 12 21  1  0
 14  1  1  0
 15  5  1  0
 16  9  1  0
 18  1  2  0
 18 10  1  0
 19  4  1  0
 19 20  1  0
 21 14  1  0
 22 11  2  0
 23 20  1  0
 23 12  2  0
 24  8  1  0
 24  3  1  0
 25 22  1  0
 25 15  1  0
M  END
$$$$

     RDKit          3D

 19 18  0  0  0  0  0  0  0  0999 V2000
   -3.6880  -10.5530   21.4060 C   0  0  0  0  0  0  0  0  0  0  0  0
   -2.2220   -8.3620   23.5290 C   0  0  0  0  0  0  0  0  0  0  0  0
   -4.9830  -12.6190   15.3550 F   0  0  0  0  0  0  0  0  0  0  0  0
   -2.5750  -10.1280   21.9100 O   0  0  0  0  0  0  0  0  0  0  0  0
   -0.4450  -10.4800   23.0090 C   0  0  0  0  0  0  0  0  0  0  0  0
   -4.3160  -12.6000   17.4930 F   0  0  0  0  0  0  0  0  0  0  0  0
   -1.7400   -9.9090   19.5070 O   0  0  0  0  0  0  0  0  0  0  0  0
   -0.9460   -9.7560   15.6120 S   0  0  0  0  0  0  0  0  0  0  0  0
   -1.9790   -9.7610   23.0150 C   0  0  0  0  0  0  0  0  0  0  0  0
   -3.9470  -10.4520   19.8980 C   0  0  0  0  0  0  0  0  0  0  0  0
   -1.7840  -10.3410   14.2980 C   0  0  0  0  0  0  0  0  0  0  0  0
   -2.6770  -10.8400   19.2670 C   0  0  0  0  0  0  0  0  0  0  0  0
   -2.9790  -12.0550   15.4340 C   0  0  0  0  0  0  0  0  0  0  0  0
   -2.8700  -11.1480   14.5090 N   0  0  0  0  0  0  0  0  0  0  0  0
   -2.6940  -10.9680   17.8040 N   0  0  0  0  0  0  0  0  0  0  0  0
   -1.9820  -10.3150   16.8630 C   0  0  0  0  0  0  0  0  0  0  0  0
   -3.4280   -7.8960   22.8670 C   0  0  0  0  0  0  0  0  0  0  0  0
   -3.9890  -12.4230   16.2910 C   0  0  0  0  0  0  0  0  0  0  0  0
   -1.3420   -9.9130   13.2010 N   0  0  0  0  0  0  0  0  0  0  0  0
  1  4  1  0
  3 18  1  0
  4  9  1  0
  8 16  1  0
  9  5  1  0
  9  2  1  0
 10  1  1  0
 11 14  1  0
 11  8  1  0
 12  7  1  0
 12 10  1  0
 13 18  1  0
 14 13  1  0
 15 12  1  0
 16 15  1  0
 17  2  1  0
 18  6  1  0
 19 11  2  0
M  END
$$$$

     RDKit          3D

 31 33  0  0  0  0  0  0  0  0999 V2000
   -3.1040  -12.5390   17.0240 C   0  0  0  0  0  0  0  0  0  0  0  0
   -5.3910  -10.8350   21.1130 C   0  0  0  0  0  0  0  0  0  0  0  0
   -3.2200  -10.6180   19.7520 C   0  0  0  0  0  0  0  0  0  0  0  0
    0.6100   -7.6160   14.3870 C   0  0  0  0  0  0  0  0  0  0  0  0
   -1.6080  -10.4960   21.6020 C   0  0  0  0  0  0  0  0  0  0  0  0
   -2.1220  -10.0770   20.2730 C   0  0  0  0  0  0  0  0  0  0  0  0
   -4.0060  -12.5350   15.8230 C   0  0  0  0  0  0  0  0  0  0  0  0
   -3.5040  -11.6770   18.0390 C   0  0  0  0  0  0  0  0  0  0  0  0
   -2.0280   -9.5680   18.0260 C   0  0  0  0  0  0  0  0  0  0  0  0
    0.8030   -4.6970   17.1480 Cl  0  0  0  0  0  0  0  0  0  0  0  0
   -0.6180  -11.4330   21.3520 F   0  0  0  0  0  0  0  0  0  0  0  0
   -2.9520  -10.5670   18.4770 N   0  0  0  0  0  0  0  0  0  0  0  0
   -1.7290   -9.3750   16.6510 N   0  0  0  0  0  0  0  0  0  0  0  0
   -4.5780  -11.5210   15.3990 O   0  0  0  0  0  0  0  0  0  0  0  0
   -0.3710  -10.0490   13.0430 N   0  0  0  0  0  0  0  0  0  0  0  0
   -0.9020   -8.3030   16.2010 C   0  0  0  0  0  0  0  0  0  0  0  0
   -4.6390  -11.9670   18.8360 C   0  0  0  0  0  0  0  0  0  0  0  0
    0.2720   -6.1780   16.4180 C   0  0  0  0  0  0  0  0  0  0  0  0
   -0.0680   -9.0620   23.0030 C   0  0  0  0  0  0  0  0  0  0  0  0
   -2.4960  -11.2230   22.3470 F   0  0  0  0  0  0  0  0  0  0  0  0
   -4.4760  -11.1710   20.0180 C   0  0  0  0  0  0  0  0  0  0  0  0
   -0.3300   -9.9490   23.8460 F   0  0  0  0  0  0  0  0  0  0  0  0
   -0.3490   -8.5050   14.9060 C   0  0  0  0  0  0  0  0  0  0  0  0
   -1.3270   -9.1430   22.1780 C   0  0  0  0  0  0  0  0  0  0  0  0
   -4.0230  -13.6930   15.1960 N   0  0  0  0  0  0  0  0  0  0  0  0
   -0.5910   -7.1220   16.9610 C   0  0  0  0  0  0  0  0  0  0  0  0
    0.9320   -6.4590   15.1260 C   0  0  0  0  0  0  0  0  0  0  0  0
    0.1310   -9.1200   12.0400 C   0  0  0  0  0  0  0  0  0  0  0  0
   -1.6980  -10.3800   14.9550 N   0  0  0  0  0  0  0  0  0  0  0  0
   -1.5760   -9.1130   19.2700 C   0  0  0  0  0  0  0  0  0  0  0  0
   -0.7850   -9.7160   14.3050 C   0  0  0  0  0  0  0  0  0  0  0  0
  3 12  1  0
  3 21  1  0
  3  6  1  0
  4 23  4  0
  4 27  4  0
  5 24  1  0
  5 20  1  0
  6  5  1  0
  7  1  1  0
  8  1  1  0
  8 12  1  0
  8 17  1  0
  9 12  1  0
  9 30  1  0
 11  5  1  0
 13  9  2  3
 14  7  2  0
 15 31  1  0
 16 13  1  0
 16 26  4  0
 17 21  1  0
 18 26  4  0
 18 10  1  0
 19 22  1  0
 21  2  1  0
 23 16  4  0
 24 19  1  0
 25  7  1  0
 27 18  4  0
 28 15  1  0
 30  6  1  0
 31 23  1  0
 31 29  2  0
M  END
$$$$

     RDKit          3D

 22 22  0  0  0  0  0  0  0  0999 V2000
   -1.1100   -9.5830   15.2800 C   0  0  0  0  0  0  0  0  0  0  0  0
   -3.7220  -11.8230   14.0920 F   0  0  0  0  0  0  0  0  0  0  0  0
    0.0460  -10.4860   21.0710 O   0  0  0  0  0  0  0  0  0  0  0  0
   -4.6420  -11.9010   18.4030 O   0  0  0  0  0  0  0  0  0  0  0  0
   -3.2660  -11.0630   16.2360 C   0  0  0  0  0  0  0  0  0  0  0  0
   -3.3120   -8.3250   20.7920 C   0  0  0  0  0  0  0  0  0  0  0  0
   -3.9640  -10.7680   19.0940 C   0  0  0  0  0  0  0  0  0  0  0  0
   -1.2540  -11.0290   21.9000 C   0  0  0  0  0  0  0  0  0  0  0  0
   -1.7830  -10.4170   14.3730 C   0  0  0  0  0  0  0  0  0  0  0  0
   -2.1380   -8.0300   21.4090 O   0  0  0  0  0  0  0  0  0  0  0  0
   -2.6550  -10.1420   18.4970 C   0  0  0  0  0  0  0  0  0  0  0  0
   -1.4320   -9.4510   16.5700 C   0  0  0  0  0  0  0  0  0  0  0  0
   -4.2700  -12.2070   21.3000 C   0  0  0  0  0  0  0  0  0  0  0  0
   -2.4870  -10.0340   21.6000 O   0  0  0  0  0  0  0  0  0  0  0  0
   -1.4140   -6.7490   20.9980 C   0  0  0  0  0  0  0  0  0  0  0  0
   -3.4340  -11.3870   20.4060 C   0  0  0  0  0  0  0  0  0  0  0  0
   -2.5210  -10.2850   17.1430 C   0  0  0  0  0  0  0  0  0  0  0  0
   -3.4030   -9.9780   20.9220 C   0  0  0  0  0  0  0  0  0  0  0  0
    0.0480   -8.7140   14.7900 O   0  0  0  0  0  0  0  0  0  0  0  0
   -2.0070   -9.4950   19.3230 O   0  0  0  0  0  0  0  0  0  0  0  0
   -2.9370  -11.1070   14.8740 C   0  0  0  0  0  0  0  0  0  0  0  0
   -5.4130  -12.3690   21.0560 O   0  0  0  0  0  0  0  0  0  0  0  0
  1 12  4  0
  2 21  1  0
  3  8  1  0
  5 17  4  0
  6 10  1  0
  7  4  1  0
  7 16  1  0
  9 21  4  0
  9  1  4  0
 11  7  1  0
 11 20  2  0
 12 17  4  0
 14  8  1  0
 15 10  1  0
 16 18  1  0
 16 13  1  0
 17 11  1  0
 18  6  1  0
 18 14  1  0
 19  1  1  0
 21  5  4  0
 22 13  2  0
M  END
$$$$

     RDKit          3D

 38 41  0  0  0  0  0  0  0  0999 V2000
   -2.3150  -11.3600   16.4810 C   0  0  0  0  0  0  0  0  0  0  0  0
    1.7410   -7.3600   12.2080 C   0  0  0  0  0  0  0  0  0  0  0  0
   -1.4810   -6.7800   24.2450 O   0  0  0  0  0  0  0  0  0  0  0  0
   -6.2300  -11.9260   22.4820 O   0  0  0  0  0  0  0  0  0  0  0  0
   -4.2250  -11.4260   21.6030 C   0  0  0  0  0  0  0  0  0  0  0  0
   -2.2460   -8.8940   19.5420 N   0  0  0  0  0  0  0  0  0  0  0  0
   -2.3950   -9.8140   18.6700 C   0  0  0  0  0  0  0  0  0  0  0  0
   -5.2920  -13.2990   21.0400 O   0  0  0  0  0  0  0  0  0  0  0  0
   -0.2940  -10.9490   22.5280 C   0  0  0  0  0  0  0  0  0  0  0  0
   -2.9730  -11.9020   17.1870 C   0  0  0  0  0  0  0  0  0  0  0  0
   -3.6830  -11.8640   18.3950 C   0  0  0  0  0  0  0  0  0  0  0  0
   -1.3250   -8.7660   22.9380 C   0  0  0  0  0  0  0  0  0  0  0  0
   -2.4420   -8.6430   20.8750 C   0  0  0  0  0  0  0  0  0  0  0  0
   -4.1740  -13.2540   15.0620 C   0  0  0  0  0  0  0  0  0  0  0  0
    0.5370   -7.8380   12.9390 C   0  0  0  0  0  0  0  0  0  0  0  0
    0.5720   -7.5620   14.4030 C   0  0  0  0  0  0  0  0  0  0  0  0
   -2.8270   -6.4290   22.1180 C   0  0  0  0  0  0  0  0  0  0  0  0
   -5.3340  -12.2230   21.6830 C   0  0  0  0  0  0  0  0  0  0  0  0
   -0.9900   -9.5980   15.0490 C   0  0  0  0  0  0  0  0  0  0  0  0
   -1.8190   -9.3910   21.6090 C   0  0  0  0  0  0  0  0  0  0  0  0
   -1.6140  -10.1550   15.8980 C   0  0  0  0  0  0  0  0  0  0  0  0
   -0.7370   -9.8970   13.4730 C   0  0  0  0  0  0  0  0  0  0  0  0
    2.7680   -7.0220   13.0440 O   0  0  0  0  0  0  0  0  0  0  0  0
    0.0720   -9.1760   12.6150 C   0  0  0  0  0  0  0  0  0  0  0  0
   -2.2840   -9.2510   17.1430 C   0  0  0  0  0  0  0  0  0  0  0  0
   -3.4130  -10.7750   19.1800 C   0  0  0  0  0  0  0  0  0  0  0  0
   -4.6190   -9.3910   20.7220 O   0  0  0  0  0  0  0  0  0  0  0  0
   -3.1280   -7.4350   21.4110 C   0  0  0  0  0  0  0  0  0  0  0  0
   -3.5910  -11.0860   16.0090 O   0  0  0  0  0  0  0  0  0  0  0  0
    0.0280   -8.1200   25.0330 O   0  0  0  0  0  0  0  0  0  0  0  0
   -3.7650  -11.8260   14.7630 C   0  0  0  0  0  0  0  0  0  0  0  0
   -1.0260  -10.4400   21.4610 C   0  0  0  0  0  0  0  0  0  0  0  0
   -1.9180   -6.0150   22.9790 C   0  0  0  0  0  0  0  0  0  0  0  0
   -0.7190   -7.8760   24.2330 C   0  0  0  0  0  0  0  0  0  0  0  0
   -0.2220   -8.4770   15.1570 O   0  0  0  0  0  0  0  0  0  0  0  0
   -0.0670  -10.0190   23.6960 C   0  0  0  0  0  0  0  0  0  0  0  0
   -3.7430  -13.6520   16.5620 C   0  0  0  0  0  0  0  0  0  0  0  0
   -4.1020  -10.4240   20.4770 C   0  0  0  0  0  0  0  0  0  0  0  0
  1 29  1  0
  1 10  1  0
  2 15  1  0
  2 23  1  0
  5 18  1  0
  7 26  1  0
  7  6  1  0
  8 18  2  0
  9 36  1  0
 10 11  1  0
 11 26  1  0
 12 36  1  0
 12 34  1  0
 13  6  1  0
 13 28  1  0
 13 20  1  0
 14 37  1  0
 15 16  1  0
 16 35  1  0
 17 33  1  0
 18  4  1  0
 19 35  1  0
 20 32  1  0
 20 12  1  0
 21 19  1  0
 21  1  1  0
 21 25  1  0
 22 19  2  0
 24 15  2  0
 24 22  1  0
 25  7  1  0
 26 38  1  0
 28 17  1  0
 31 14  1  0
 31 29  1  0
 32  9  1  0
 33  3  1  0
 34  3  1  0
 34 30  2  0
 38 27  2  0
 38  5  1  0
M  END
$$$$

     RDKit          3D

 19 19  0  0  0  0  0  0  0  0999 V2000
   -2.0960   -9.8800   21.5860 C   0  0  0  0  0  0  0  0  0  0  0  0
   -5.0190  -11.9160   20.3430 O   0  0  0  0  0  0  0  0  0  0  0  0
   -1.8090  -10.6290   14.8650 C   0  0  0  0  0  0  0  0  0  0  0  0
   -2.4890   -8.3540   21.2250 C   0  0  0  0  0  0  0  0  0  0  0  0
   -3.3460  -10.7040   21.9610 C   0  0  0  0  0  0  0  0  0  0  0  0
   -2.5530  -11.2090   17.3040 C   0  0  0  0  0  0  0  0  0  0  0  0
   -1.9960  -10.8100   13.6060 N   0  0  0  0  0  0  0  0  0  0  0  0
   -1.0390   -9.9520   22.7770 C   0  0  0  0  0  0  0  0  0  0  0  0
   -1.6170  -10.0970   17.3390 O   0  0  0  0  0  0  0  0  0  0  0  0
   -3.6980  -10.9380   18.2550 C   0  0  0  0  0  0  0  0  0  0  0  0
   -1.8530  -12.5390   17.6000 C   0  0  0  0  0  0  0  0  0  0  0  0
   -3.0970  -10.4920   19.6190 C   0  0  0  0  0  0  0  0  0  0  0  0
   -4.0160  -11.7340   15.3180 C   0  0  0  0  0  0  0  0  0  0  0  0
   -0.6750   -9.9210   15.1850 O   0  0  0  0  0  0  0  0  0  0  0  0
   -3.6710  -11.4530   20.6970 C   0  0  0  0  0  0  0  0  0  0  0  0
   -3.8110  -13.1400   15.5780 O   0  0  0  0  0  0  0  0  0  0  0  0
    0.3240   -9.5280   22.3230 C   0  0  0  0  0  0  0  0  0  0  0  0
   -2.7520  -11.0640   15.7920 C   0  0  0  0  0  0  0  0  0  0  0  0
   -1.6530  -10.3230   20.1810 C   0  0  0  0  0  0  0  0  0  0  0  0
  1  4  1  0
  1  5  1  0
  1  8  1  0
  3 14  2  0
  3 18  1  0
  6  9  1  0
  6 11  1  0
  6 10  1  0
  7  3  1  0
 12 10  1  0
 12 19  1  0
 12 15  1  0
 13 16  1  0
 15  2  1  0
 15  5  1  0
 17  8  1  0
 18 13  1  0
 18  6  1  0
 19  1  1  0
M  END
$$$$

     RDKit          3D

  8  8  0  0  0  0  0  0  0  0999 V2000
   -4.3450  -11.7040   19.3830 C   0  0  0  0  0  0  0  0  0  0  0  0
   -4.4330  -12.1350   16.6170 Cl  0  0  0  0  0  0  0  0  0  0  0  0
   -1.1640  -11.0230   21.7560 Cl  0  0  0  0  0  0  0  0  0  0  0  0
   -2.2190  -11.0460   20.3990 C   0  0  0  0  0  0  0  0  0  0  0  0
   -3.5750  -11.5010   20.5250 C   0  0  0  0  0  0  0  0  0  0  0  0
   -3.7920  -11.3790   18.0520 C   0  0  0  0  0  0  0  0  0  0  0  0
   -2.6140  -10.5830   18.0890 C   0  0  0  0  0  0  0  0  0  0  0  0
   -1.7850  -10.5370   19.1230 C   0  0  0  0  0  0  0  0  0  0  0  0
  1  5  4  0
  2  6  1  0
  4  5  4  0
  4  3  1  0
  6  7  4  0
  6  1  4  0
  7  8  4  0
  8  4  4  0
M  END
$$$$

     RDKit          3D

 28 33  0  0  0  0  0  0  0  0999 V2000
    0.4730   -7.7180   13.8440 C   0  0  0  0  0  0  0  0  0  0  0  0
   -0.2480   -8.2840   22.3780 O   0  0  0  0  0  0  0  0  0  0  0  0
   -1.7760   -7.2930   19.7120 S   0  0  0  0  0  0  0  0  0  0  0  0
   -1.8340   -9.1000   20.8190 C   0  0  0  0  0  0  0  0  0  0  0  0
    0.3540   -9.6320   22.6560 C   0  0  0  0  0  0  0  0  0  0  0  0
   -4.6180  -12.1560   20.3250 C   0  0  0  0  0  0  0  0  0  0  0  0
    0.0890   -6.9590   15.0160 C   0  0  0  0  0  0  0  0  0  0  0  0
   -1.0860   -7.7090   15.6870 C   0  0  0  0  0  0  0  0  0  0  0  0
   -3.9810  -12.4370   15.0730 O   0  0  0  0  0  0  0  0  0  0  0  0
    0.2730   -5.6910   15.5250 C   0  0  0  0  0  0  0  0  0  0  0  0
   -0.9050   -9.0730   15.2950 C   0  0  0  0  0  0  0  0  0  0  0  0
   -0.7210  -10.7700   22.4800 C   0  0  0  0  0  0  0  0  0  0  0  0
   -2.0340  -10.1900   21.8360 C   0  0  0  0  0  0  0  0  0  0  0  0
   -3.3300  -11.2730   16.9840 C   0  0  0  0  0  0  0  0  0  0  0  0
   -4.2640  -12.4620   17.4590 C   0  0  0  0  0  0  0  0  0  0  0  0
   -1.3370  -12.0830   20.4280 O   0  0  0  0  0  0  0  0  0  0  0  0
   -3.2630  -10.1080   19.2890 N   0  0  0  0  0  0  0  0  0  0  0  0
   -1.5230  -11.6540   21.5280 C   0  0  0  0  0  0  0  0  0  0  0  0
   -3.1330  -11.4540   15.6410 C   0  0  0  0  0  0  0  0  0  0  0  0
   -0.2980   -9.1030   13.9350 C   0  0  0  0  0  0  0  0  0  0  0  0
   -1.5050  -10.1020   14.7640 N   0  0  0  0  0  0  0  0  0  0  0  0
   -2.0840  -11.1250   14.7560 N   0  0  0  0  0  0  0  0  0  0  0  0
   -2.8010  -10.1990   17.9550 C   0  0  0  0  0  0  0  0  0  0  0  0
   -1.9050   -9.5360   17.5590 O   0  0  0  0  0  0  0  0  0  0  0  0
   -0.7710   -8.0780   21.0920 C   0  0  0  0  0  0  0  0  0  0  0  0
   -4.3880  -10.7330   19.8260 C   0  0  0  0  0  0  0  0  0  0  0  0
   -2.8240   -8.8390   19.8390 C   0  0  0  0  0  0  0  0  0  0  0  0
   -4.3470  -13.2340   16.1580 C   0  0  0  0  0  0  0  0  0  0  0  0
  1 20  1  0
  1  7  1  0
  2  5  1  0
  3 27  1  0
  3 25  1  0
  4 25  1  0
  4 13  1  0
  7 10  1  0
  7  8  1  0
  9 19  1  0
  9 28  1  0
 11  8  1  0
 12  5  1  0
 13 12  1  0
 14 15  1  0
 14 23  1  0
 16 18  1  0
 17 26  1  0
 17 27  1  0
 18 13  1  0
 18 12  1  0
 19 14  1  0
 20 21  1  0
 20 11  1  0
 21 11  1  0
 22 21  1  0
 22 19  1  0
 23 17  1  0
 24 23  2  0
 25  2  1  0
 26  6  1  0
 27  4  1  0
 28 15  1  0
M  END
$$$$

     RDKit          3D

 32 36  0  0  0  0  0  0  0  0999 V2000
   -0.1350   -5.3480   16.2120 N   0  0  0  0  0  0  0  0  0  0  0  0
   -0.9100  -10.4350   13.5070 C   0  0  0  0  0  0  0  0  0  0  0  0
   -1.5300   -5.9500   17.7920 C   0  0  0  0  0  0  0  0  0  0  0  0
   -0.5660   -6.6530   15.8980 C   0  0  0  0  0  0  0  0  0  0  0  0
   -2.2230  -11.2060   15.0750 N   0  0  0  0  0  0  0  0  0  0  0  0
   -3.8830  -10.9030   21.6890 C   0  0  0  0  0  0  0  0  0  0  0  0
   -2.1440   -9.2480   21.0170 C   0  0  0  0  0  0  0  0  0  0  0  0
   -3.9800  -12.9560   15.8800 C   0  0  0  0  0  0  0  0  0  0  0  0
   -4.9390  -13.3300   21.7940 O   0  0  0  0  0  0  0  0  0  0  0  0
   -0.8370   -4.9990   17.2870 C   0  0  0  0  0  0  0  0  0  0  0  0
   -1.6360  -10.0630   15.5140 C   0  0  0  0  0  0  0  0  0  0  0  0
   -2.2540   -9.2390   16.5210 C   0  0  0  0  0  0  0  0  0  0  0  0
   -2.1680   -9.7140   18.7990 O   0  0  0  0  0  0  0  0  0  0  0  0
   -2.7900  -10.1480   17.7250 C   0  0  0  0  0  0  0  0  0  0  0  0
   -6.9710  -12.5600   21.4650 O   0  0  0  0  0  0  0  0  0  0  0  0
   -3.8570  -10.9270   17.9200 C   0  0  0  0  0  0  0  0  0  0  0  0
   -4.3500  -11.2940   19.0560 C   0  0  0  0  0  0  0  0  0  0  0  0
   -2.6730  -10.1190   19.9100 N   0  0  0  0  0  0  0  0  0  0  0  0
   -1.0930   -9.5990   24.0090 O   0  0  0  0  0  0  0  0  0  0  0  0
   -1.3710   -7.0280   16.9460 N   0  0  0  0  0  0  0  0  0  0  0  0
   -3.7050   -8.6870   23.0960 C   0  0  0  0  0  0  0  0  0  0  0  0
   -1.9140  -10.2150   23.2430 C   0  0  0  0  0  0  0  0  0  0  0  0
   -5.2060  -11.1520   22.2940 C   0  0  0  0  0  0  0  0  0  0  0  0
   -0.5910   -9.5010   21.2430 C   0  0  0  0  0  0  0  0  0  0  0  0
   -2.9370   -9.8100   22.3140 C   0  0  0  0  0  0  0  0  0  0  0  0
   -2.5410  -12.4080   15.8120 C   0  0  0  0  0  0  0  0  0  0  0  0
   -3.7640  -10.7400   20.1700 C   0  0  0  0  0  0  0  0  0  0  0  0
   -0.5010  -10.6840   22.1460 C   0  0  0  0  0  0  0  0  0  0  0  0
   -1.9030  -11.3780   13.7270 N   0  0  0  0  0  0  0  0  0  0  0  0
   -1.9390   -8.0960   16.9940 N   0  0  0  0  0  0  0  0  0  0  0  0
   -5.7930  -12.3920   21.8130 C   0  0  0  0  0  0  0  0  0  0  0  0
   -0.5480   -9.6290   14.5790 N   0  0  0  0  0  0  0  0  0  0  0  0
  1 10  4  0
  2 29  1  0
  2 32  1  0
  4  1  4  0
  4 20  4  0
  5 11  1  0
  5 26  1  0
  6 23  1  0
  6 25  1  0
  7 24  1  0
  7 25  1  0
  9 31  1  0
 10  3  4  0
 11 12  1  0
 12 30  1  0
 12 14  1  0
 13 18  1  0
 14 16  2  0
 14 13  1  0
 15 31  2  0
 16 17  1  0
 17 27  2  0
 18 27  1  0
 18  7  1  0
 20 30  1  0
 20  3  4  0
 22 19  1  0
 24 28  1  0
 25 21  1  0
 25 22  1  0
 26  8  1  0
 27  6  1  0
 28 22  1  0
 29  5  1  0
 31 23  1  0
 32 11  2  0
M  END
$$$$

     RDKit          3D

 30 32  0  0  0  0  0  0  0  0999 V2000
   -2.0530   -9.8460   23.1280 C   0  0  0  0  0  0  0  0  0  0  0  0
   -2.3110  -12.5200   19.2990 C   0  0  0  0  0  0  0  0  0  0  0  0
   -1.6040   -7.1530   19.9270 C   0  0  0  0  0  0  0  0  0  0  0  0
   -1.7360   -5.9770   20.2400 O   0  0  0  0  0  0  0  0  0  0  0  0
   -4.6430  -12.7720   17.4340 O   0  0  0  0  0  0  0  0  0  0  0  0
   -1.7450   -8.1440   20.7520 C   0  0  0  0  0  0  0  0  0  0  0  0
   -3.7950   -8.2660   21.9010 C   0  0  0  0  0  0  0  0  0  0  0  0
   -1.1120   -7.6800   18.6860 C   0  0  0  0  0  0  0  0  0  0  0  0
   -1.8250   -7.3490   17.2820 C   0  0  0  0  0  0  0  0  0  0  0  0
   -2.5050   -9.9970   17.4800 C   0  0  0  0  0  0  0  0  0  0  0  0
   -1.7590   -9.6580   20.6540 C   0  0  0  0  0  0  0  0  0  0  0  0
   -2.8270   -9.7700   21.7680 C   0  0  0  0  0  0  0  0  0  0  0  0
   -4.0750  -12.6720   16.1180 C   0  0  0  0  0  0  0  0  0  0  0  0
   -3.0190  -10.9420   14.8530 C   0  0  0  0  0  0  0  0  0  0  0  0
   -4.6670  -13.3600   15.1960 F   0  0  0  0  0  0  0  0  0  0  0  0
   -3.7290  -10.6310   21.8380 O   0  0  0  0  0  0  0  0  0  0  0  0
   -2.2720  -10.1280   19.1270 C   0  0  0  0  0  0  0  0  0  0  0  0
   -0.5350  -10.3270   21.1510 O   0  0  0  0  0  0  0  0  0  0  0  0
   -4.3180  -11.4800   18.1760 C   0  0  0  0  0  0  0  0  0  0  0  0
   -1.4580  -10.5250   16.6680 C   0  0  0  0  0  0  0  0  0  0  0  0
   -0.5590   -9.3750   14.6660 O   0  0  0  0  0  0  0  0  0  0  0  0
    0.3670   -9.5670   21.9450 C   0  0  0  0  0  0  0  0  0  0  0  0
   -3.1460  -11.3240   19.2290 C   0  0  0  0  0  0  0  0  0  0  0  0
   -2.1030   -8.8950   24.0020 O   0  0  0  0  0  0  0  0  0  0  0  0
   -1.4260  -10.8990   23.4130 O   0  0  0  0  0  0  0  0  0  0  0  0
   -4.1660  -11.1660   15.7510 C   0  0  0  0  0  0  0  0  0  0  0  0
   -4.0370  -10.4540   17.0650 C   0  0  0  0  0  0  0  0  0  0  0  0
   -0.5620   -7.0360   16.3910 C   0  0  0  0  0  0  0  0  0  0  0  0
   -1.8110  -11.5410   15.5720 C   0  0  0  0  0  0  0  0  0  0  0  0
   -0.3250   -9.7560   15.9920 C   0  0  0  0  0  0  0  0  0  0  0  0
  1 25  2  0
  1 24  1  0
  3  4  2  0
  3  6  1  0
  5 19  1  0
  8  3  1  0
  9  8  1  0
 10 17  1  0
 11  6  1  0
 11 18  1  0
 11 12  1  0
 12 16  1  0
 12  7  1  0
 12  1  1  0
 13  5  1  0
 14 29  1  0
 14 26  1  0
 15 13  1  0
 17 23  1  0
 17 11  1  0
 18 22  1  0
 19 23  1  0
 20 10  1  0
 21 30  1  0
 23  2  1  0
 26 13  1  0
 26 27  1  0
 27 10  1  0
 27 19  1  0
 28  9  1  0
 29 20  1  0
 30 20  1  0
M  END
$$$$

     RDKit          3D

 20 22  0  0  0  0  0  0  0  0999 V2000
   -0.9530   -9.6120   15.7280 N   0  0  0  0  0  0  0  0  0  0  0  0
   -4.2610  -10.6430   19.9900 C   0  0  0  0  0  0  0  0  0  0  0  0
   -1.7190   -9.7440   18.2840 C   0  0  0  0  0  0  0  0  0  0  0  0
   -1.0920   -9.7880   14.3780 C   0  0  0  0  0  0  0  0  0  0  0  0
   -2.4170  -10.7040   21.4190 N   0  0  0  0  0  0  0  0  0  0  0  0
   -1.7350  -10.2240   16.6320 C   0  0  0  0  0  0  0  0  0  0  0  0
   -2.6060  -11.1400   16.1970 C   0  0  0  0  0  0  0  0  0  0  0  0
   -0.2820  -10.8980   22.8370 C   0  0  0  0  0  0  0  0  0  0  0  0
   -2.8440  -11.2870   14.8670 C   0  0  0  0  0  0  0  0  0  0  0  0
   -3.4230  -11.6640   21.9390 C   0  0  0  0  0  0  0  0  0  0  0  0
   -3.0490   -9.9310   20.4460 C   0  0  0  0  0  0  0  0  0  0  0  0
   -2.0960  -10.6030   13.9730 C   0  0  0  0  0  0  0  0  0  0  0  0
   -3.4650  -12.0660   16.9290 C   0  0  0  0  0  0  0  0  0  0  0  0
   -4.7280  -11.5000   21.2070 C   0  0  0  0  0  0  0  0  0  0  0  0
   -2.3300   -9.1230   19.5100 C   0  0  0  0  0  0  0  0  0  0  0  0
   -1.3400  -10.6680   22.1260 C   0  0  0  0  0  0  0  0  0  0  0  0
   -0.9520   -8.6620   17.9460 O   0  0  0  0  0  0  0  0  0  0  0  0
   -3.8570  -12.2070   14.7250 O   0  0  0  0  0  0  0  0  0  0  0  0
   -2.3720   -7.8290   19.5070 O   0  0  0  0  0  0  0  0  0  0  0  0
   -4.2490  -12.7060   15.9880 C   0  0  0  0  0  0  0  0  0  0  0  0
  1  6  4  0
  2 11  1  0
  2 14  1  0
  3 17  1  0
  3 15  1  0
  4  1  4  0
  5 10  1  0
  5 16  1  0
  6  3  1  0
  7  6  4  0
  7 13  4  0
  9  7  4  0
 11 15  1  0
 11  5  1  0
 12  4  4  0
 12  9  4  0
 14 10  1  0
 15 19  1  0
 16  8  3  0
 18  9  4  0
 18 20  4  0
 20 13  4  0
M  END
$$$$

     RDKit          3D

 20 21  0  0  0  0  0  0  0  0999 V2000
   -3.1930  -10.5410   21.1910 C   0  0  0  0  0  0  0  0  0  0  0  0
   -3.7590  -12.0930   15.6000 C   0  0  0  0  0  0  0  0  0  0  0  0
   -1.6040   -9.8710   15.9680 C   0  0  0  0  0  0  0  0  0  0  0  0
   -2.9850  -11.5410   14.6920 N   0  0  0  0  0  0  0  0  0  0  0  0
   -4.4550  -11.4780   19.7180 N   0  0  0  0  0  0  0  0  0  0  0  0
   -0.9470   -9.4960   21.7190 C   0  0  0  0  0  0  0  0  0  0  0  0
    0.5950   -7.2240   14.8510 C   0  0  0  0  0  0  0  0  0  0  0  0
   -2.1660  -10.6120   14.8600 C   0  0  0  0  0  0  0  0  0  0  0  0
   -0.5830   -9.1640   15.6980 N   0  0  0  0  0  0  0  0  0  0  0  0
   -2.1800  -10.0680   17.2410 C   0  0  0  0  0  0  0  0  0  0  0  0
   -2.6950  -10.3360   19.9600 N   0  0  0  0  0  0  0  0  0  0  0  0
   -5.2550  -11.9630   22.0230 C   0  0  0  0  0  0  0  0  0  0  0  0
   -0.9580   -8.1780   21.3590 O   0  0  0  0  0  0  0  0  0  0  0  0
    0.3010   -9.9790   22.4540 C   0  0  0  0  0  0  0  0  0  0  0  0
   -3.4520  -10.8880   19.0800 N   0  0  0  0  0  0  0  0  0  0  0  0
   -2.2110  -10.1370   22.2780 C   0  0  0  0  0  0  0  0  0  0  0  0
   -4.2910  -11.3960   21.0410 C   0  0  0  0  0  0  0  0  0  0  0  0
   -3.1150  -10.9330   17.7010 C   0  0  0  0  0  0  0  0  0  0  0  0
   -0.2660   -7.9140   15.9100 C   0  0  0  0  0  0  0  0  0  0  0  0
   -3.8160  -11.8670   16.8890 C   0  0  0  0  0  0  0  0  0  0  0  0
  1 16  1  0
  2 20  1  0
  3 10  1  0
  4  8  1  0
  4  2  2  0
  5 17  4  0
  6 16  1  0
  6 14  1  0
  7 19  1  0
  8  3  2  0
  9 19  1  0
  9  3  1  0
 10 18  2  0
 11  1  4  0
 13  6  1  0
 15  5  4  0
 15 11  4  0
 17  1  4  0
 17 12  1  0
 18 15  1  0
 20 18  1  0
M  END
$$$$

     RDKit          3D

 22 24  0  0  0  0  0  0  0  0999 V2000
   -3.5130  -11.3780   18.3860 C   0  0  0  0  0  0  0  0  0  0  0  0
   -0.5870  -10.2430   14.9180 C   0  0  0  0  0  0  0  0  0  0  0  0
   -3.4580  -10.9780   16.9680 C   0  0  0  0  0  0  0  0  0  0  0  0
   -4.7220  -11.9790   18.8980 C   0  0  0  0  0  0  0  0  0  0  0  0
   -2.3560  -10.1910   16.4830 C   0  0  0  0  0  0  0  0  0  0  0  0
   -3.3720  -11.0790   23.2180 C   0  0  0  0  0  0  0  0  0  0  0  0
   -4.9140  -11.9240   20.2370 O   0  0  0  0  0  0  0  0  0  0  0  0
   -2.5510  -11.0210   19.3200 C   0  0  0  0  0  0  0  0  0  0  0  0
   -1.7360  -10.7500   23.1380 S   0  0  0  0  0  0  0  0  0  0  0  0
   -2.8390  -11.0030   20.8890 C   0  0  0  0  0  0  0  0  0  0  0  0
   -1.9880   -8.8910   16.8660 C   0  0  0  0  0  0  0  0  0  0  0  0
   -3.8940  -12.2320   16.2000 C   0  0  0  0  0  0  0  0  0  0  0  0
   -0.2070   -9.0000   15.3140 C   0  0  0  0  0  0  0  0  0  0  0  0
   -1.8800   -6.8050   17.5540 C   0  0  0  0  0  0  0  0  0  0  0  0
   -2.5360  -11.4810   14.3910 O   0  0  0  0  0  0  0  0  0  0  0  0
   -0.9850   -6.9340   16.4650 N   0  0  0  0  0  0  0  0  0  0  0  0
   -0.3510   -5.7780   16.0900 C   0  0  0  0  0  0  0  0  0  0  0  0
   -2.4090   -7.9860   17.8060 N   0  0  0  0  0  0  0  0  0  0  0  0
   -1.8350  -10.6500   15.2290 C   0  0  0  0  0  0  0  0  0  0  0  0
   -0.9700   -8.2570   16.1410 C   0  0  0  0  0  0  0  0  0  0  0  0
   -1.5500  -10.9470   21.5450 C   0  0  0  0  0  0  0  0  0  0  0  0
   -3.9770  -11.1070   22.1230 C   0  0  0  0  0  0  0  0  0  0  0  0
  1  4  1  0
  1  8  1  0
  2 19  1  0
  2 13  2  0
  3 12  1  0
  3  1  1  0
  4  7  1  0
  5 11  1  0
  5  3  1  0
  8 10  2  3
  9  6  1  0
 10 21  1  0
 10 22  1  0
 11 18  2  0
 14 18  1  0
 16 14  1  0
 17 16  1  0
 19 15  1  0
 19  5  1  0
 20 13  1  0
 20 16  1  0
 20 11  1  0
 21  9  1  0
 22  6  1  0
M  END
$$$$

     RDKit          3D

 29 33  0  0  0  0  0  0  0  0999 V2000
   -0.7690   -9.2540   20.9520 C   0  0  0  0  0  0  0  0  0  0  0  0
   -1.9520  -11.7050   20.9370 C   0  0  0  0  0  0  0  0  0  0  0  0
   -0.9750   -9.3790   15.5920 C   0  0  0  0  0  0  0  0  0  0  0  0
   -4.4120  -12.4110   15.7770 C   0  0  0  0  0  0  0  0  0  0  0  0
   -2.8560  -11.0600   18.4300 C   0  0  0  0  0  0  0  0  0  0  0  0
   -0.9770   -8.1710   16.7530 O   0  0  0  0  0  0  0  0  0  0  0  0
   -4.9390  -12.1810   20.4020 C   0  0  0  0  0  0  0  0  0  0  0  0
   -0.8790  -10.5450   13.6230 C   0  0  0  0  0  0  0  0  0  0  0  0
   -3.5610  -11.5400   15.7250 C   0  0  0  0  0  0  0  0  0  0  0  0
   -2.1130   -8.5280   18.8550 C   0  0  0  0  0  0  0  0  0  0  0  0
   -1.8250  -10.3150   16.0750 C   0  0  0  0  0  0  0  0  0  0  0  0
   -0.4020   -9.5850   14.3400 C   0  0  0  0  0  0  0  0  0  0  0  0
   -1.6380   -9.5920   19.8890 C   0  0  0  0  0  0  0  0  0  0  0  0
   -2.2520  -10.8780   19.9090 C   0  0  0  0  0  0  0  0  0  0  0  0
    0.8710   -9.8780   23.1270 Cl  0  0  0  0  0  0  0  0  0  0  0  0
   -4.7680  -12.5520   17.2630 C   0  0  0  0  0  0  0  0  0  0  0  0
   -5.2960  -11.1290   20.6730 O   0  0  0  0  0  0  0  0  0  0  0  0
   -2.2950  -10.9110   15.3530 C   0  0  0  0  0  0  0  0  0  0  0  0
   -1.8840  -10.1420   17.5030 C   0  0  0  0  0  0  0  0  0  0  0  0
   -4.2270  -12.8020   19.3630 O   0  0  0  0  0  0  0  0  0  0  0  0
   -2.0500  -11.1370   14.0650 N   0  0  0  0  0  0  0  0  0  0  0  0
   -2.1690   -8.7560   17.3980 C   0  0  0  0  0  0  0  0  0  0  0  0
   -3.9030  -12.2100   18.3050 C   0  0  0  0  0  0  0  0  0  0  0  0
   -2.8640   -6.9980   19.2500 C   0  0  0  0  0  0  0  0  0  0  0  0
   -1.7860   -7.2160   19.2720 C   0  0  0  0  0  0  0  0  0  0  0  0
   -0.4120  -10.1500   21.9220 C   0  0  0  0  0  0  0  0  0  0  0  0
   -1.1030  -11.4130   21.9890 C   0  0  0  0  0  0  0  0  0  0  0  0
   -4.9770  -13.1420   21.2280 N   0  0  0  0  0  0  0  0  0  0  0  0
   -3.3170   -7.2020   20.6670 O   0  0  0  0  0  0  0  0  0  0  0  0
  1 26  4  0
  2 27  4  0
  3 12  1  0
  3 11  1  0
  3  6  1  0
  4 16  1  0
  5 14  1  0
  6 22  1  0
  7 17  2  0
  7 28  1  0
  8 21  1  0
  8 12  2  0
  9  4  1  0
 10 25  1  0
 10 13  1  0
 11 18  1  0
 11 19  1  0
 13 14  4  0
 13  1  4  0
 14  2  4  0
 16 23  1  0
 18  9  1  0
 19  5  1  0
 20  7  1  0
 21 18  2  0
 22 19  1  0
 22 10  1  0
 23  5  1  0
 23 20  1  0
 24 25  1  0
 24 29  1  0
 26 27  4  0
 26 15  1  0
M  END
$$$$

     RDKit          3D

 21 22  0  0  0  0  0  0  0  0999 V2000
   -4.7100  -11.6100   20.4620 C   0  0  0  0  0  0  0  0  0  0  0  0
   -3.5070  -10.7180   22.5330 C   0  0  0  0  0  0  0  0  0  0  0  0
   -1.3790   -9.8640   14.9300 C   0  0  0  0  0  0  0  0  0  0  0  0
   -1.1550  -10.0800   23.2140 N   0  0  0  0  0  0  0  0  0  0  0  0
   -4.7290  -11.8640   19.1040 C   0  0  0  0  0  0  0  0  0  0  0  0
   -0.1040   -8.1920   15.8450 O   0  0  0  0  0  0  0  0  0  0  0  0
   -2.4380   -9.9000   22.9750 N   0  0  0  0  0  0  0  0  0  0  0  0
   -2.5540  -10.5560   20.1930 C   0  0  0  0  0  0  0  0  0  0  0  0
   -0.5810  -11.1350   23.1090 O   0  0  0  0  0  0  0  0  0  0  0  0
   -1.9250  -10.1830   16.0820 C   0  0  0  0  0  0  0  0  0  0  0  0
   -3.6640  -12.0030   16.8020 C   0  0  0  0  0  0  0  0  0  0  0  0
   -3.6400  -11.5500   18.2790 C   0  0  0  0  0  0  0  0  0  0  0  0
   -3.6220  -10.9550   21.0530 C   0  0  0  0  0  0  0  0  0  0  0  0
   -0.4650   -8.6960   14.5940 C   0  0  0  0  0  0  0  0  0  0  0  0
   -4.3580  -12.9960   16.2990 C   0  0  0  0  0  0  0  0  0  0  0  0
   -0.4790   -8.7910   23.5490 C   0  0  0  0  0  0  0  0  0  0  0  0
   -1.8110  -10.6670   13.9170 N   0  0  0  0  0  0  0  0  0  0  0  0
   -2.6740  -11.5760   14.5410 N   0  0  0  0  0  0  0  0  0  0  0  0
   -2.7510  -11.2630   15.8290 C   0  0  0  0  0  0  0  0  0  0  0  0
   -0.0420   -8.8860   13.2250 N   0  0  0  0  0  0  0  0  0  0  0  0
   -2.6230  -10.8770   18.8520 C   0  0  0  0  0  0  0  0  0  0  0  0
  1 13  4  0
  2  7  1  0
  3 10  1  0
  4 16  1  0
  5  1  4  0
  7  4  1  0
  8 13  4  0
  9  4  1  0
 11 12  1  0
 12 21  4  0
 12  5  4  0
 13  2  1  0
 14  3  1  0
 14  6  2  0
 15 11  2  0
 17 18  1  0
 17  3  2  0
 18 19  2  0
 19 10  1  0
 19 11  1  0
 20 14  1  0
 21  8  4  0
M  END
$$$$

     RDKit          3D

 29 32  0  0  0  0  0  0  0  0999 V2000
   -2.5100  -10.8330   14.5390 C   0  0  0  0  0  0  0  0  0  0  0  0
   -1.9770  -10.3300   15.6710 N   0  0  0  0  0  0  0  0  0  0  0  0
    0.0540   -9.8870   21.9470 C   0  0  0  0  0  0  0  0  0  0  0  0
   -1.7190   -9.5170   19.3310 C   0  0  0  0  0  0  0  0  0  0  0  0
   -5.7560  -13.0480   21.3910 N   0  0  0  0  0  0  0  0  0  0  0  0
   -3.7760  -11.4990   21.7420 C   0  0  0  0  0  0  0  0  0  0  0  0
   -4.9490  -12.3800   22.2000 C   0  0  0  0  0  0  0  0  0  0  0  0
   -3.4030  -11.5280   17.0040 C   0  0  0  0  0  0  0  0  0  0  0  0
    0.1630   -9.0660   12.5340 C   0  0  0  0  0  0  0  0  0  0  0  0
   -0.7320   -9.3880   17.2090 O   0  0  0  0  0  0  0  0  0  0  0  0
   -2.1260  -10.2090   23.0290 C   0  0  0  0  0  0  0  0  0  0  0  0
   -4.0220  -11.4790   23.9800 O   0  0  0  0  0  0  0  0  0  0  0  0
   -3.7950  -12.2110   15.8420 C   0  0  0  0  0  0  0  0  0  0  0  0
   -1.7830   -9.8010   17.9720 C   0  0  0  0  0  0  0  0  0  0  0  0
   -2.1490  -10.2700   20.5490 C   0  0  0  0  0  0  0  0  0  0  0  0
    0.0870   -9.4360   14.7490 C   0  0  0  0  0  0  0  0  0  0  0  0
   -0.6050   -5.7750   16.6220 C   0  0  0  0  0  0  0  0  0  0  0  0
   -1.5160   -6.5580   17.5010 C   0  0  0  0  0  0  0  0  0  0  0  0
   -3.3980  -11.7780   14.6430 N   0  0  0  0  0  0  0  0  0  0  0  0
   -1.1590   -8.1210   19.6830 C   0  0  0  0  0  0  0  0  0  0  0  0
   -4.6040  -13.3330   15.9240 N   0  0  0  0  0  0  0  0  0  0  0  0
   -0.6910   -7.3220   18.6220 C   0  0  0  0  0  0  0  0  0  0  0  0
   -0.8450   -9.6440   15.8500 C   0  0  0  0  0  0  0  0  0  0  0  0
   -3.2430  -11.0270   22.9680 C   0  0  0  0  0  0  0  0  0  0  0  0
   -0.2280   -8.5320   13.8560 O   0  0  0  0  0  0  0  0  0  0  0  0
   -1.4080  -10.1420   21.8570 C   0  0  0  0  0  0  0  0  0  0  0  0
   -3.1990  -11.1290   20.4980 C   0  0  0  0  0  0  0  0  0  0  0  0
   -2.5660  -10.4860   16.9870 C   0  0  0  0  0  0  0  0  0  0  0  0
   -5.0300  -12.3000   23.4810 N   0  0  0  0  0  0  0  0  0  0  0  0
  1 19  1  0
  1  2  1  0
  2 23  1  0
  2 28  1  0
  4 20  2  3
  5  7  1  0
  6  7  4  0
  6 24  4  0
  7 29  4  0
  9 25  1  0
 10 14  1  0
 13 21  1  0
 13  8  1  0
 14  4  1  0
 15  4  1  0
 15 26  1  0
 17 18  1  0
 18 22  1  0
 19 13  2  0
 22 20  1  0
 23 16  1  0
 23 10  1  0
 24 11  1  0
 24 12  4  0
 25 16  1  0
 26  3  1  0
 26 11  1  0
 27 15  1  0
 27  6  1  0
 28  8  1  0
 28 14  2  0
 29 12  4  0
M  END
$$$$

     RDKit          3D

 23 25  0  0  0  0  0  0  0  0999 V2000
   -3.1280  -11.7510   14.5380 N   0  0  0  0  0  0  0  0  0  0  0  0
   -3.8460  -10.0280   22.7560 C   0  0  0  0  0  0  0  0  0  0  0  0
   -2.3670  -11.1700   20.9430 C   0  0  0  0  0  0  0  0  0  0  0  0
   -3.6700  -11.2000   18.6530 C   0  0  0  0  0  0  0  0  0  0  0  0
   -2.4040   -9.2510   18.4740 O   0  0  0  0  0  0  0  0  0  0  0  0
   -1.3180  -10.1830   14.5510 C   0  0  0  0  0  0  0  0  0  0  0  0
   -4.0340  -12.4340   16.6420 C   0  0  0  0  0  0  0  0  0  0  0  0
   -2.5160  -10.5720   16.5550 C   0  0  0  0  0  0  0  0  0  0  0  0
   -3.2310  -11.5270   15.8610 C   0  0  0  0  0  0  0  0  0  0  0  0
    0.1170   -8.0570   17.1490 C   0  0  0  0  0  0  0  0  0  0  0  0
   -0.7790   -8.6760   16.1730 N   0  0  0  0  0  0  0  0  0  0  0  0
   -2.8610  -10.2760   17.8780 C   0  0  0  0  0  0  0  0  0  0  0  0
   -1.4490   -9.9100   15.9260 C   0  0  0  0  0  0  0  0  0  0  0  0
   -1.8820  -10.7820   23.2890 O   0  0  0  0  0  0  0  0  0  0  0  0
   -4.8490  -10.5460   20.7260 C   0  0  0  0  0  0  0  0  0  0  0  0
   -2.1460  -11.1210   13.8780 C   0  0  0  0  0  0  0  0  0  0  0  0
   -4.8410  -10.7980   22.0580 O   0  0  0  0  0  0  0  0  0  0  0  0
   -4.2680  -12.2920   17.9580 C   0  0  0  0  0  0  0  0  0  0  0  0
    0.8990   -5.7110   17.3790 C   0  0  0  0  0  0  0  0  0  0  0  0
   -0.6960  -11.0350   22.7530 C   0  0  0  0  0  0  0  0  0  0  0  0
   -2.4380  -10.5000   22.2520 C   0  0  0  0  0  0  0  0  0  0  0  0
   -3.6880  -11.0300   20.0580 C   0  0  0  0  0  0  0  0  0  0  0  0
    0.7520   -6.8690   16.4470 C   0  0  0  0  0  0  0  0  0  0  0  0
  1  9  2  0
  3 21  1  0
  4 18  1  0
  4 22  1  0
  6 13  1  0
  7 18  2  0
  8  9  1  0
  8 12  1  0
  9  7  1  0
 11 10  1  0
 12  5  2  0
 12  4  1  0
 13 11  1  0
 13  8  1  0
 15 17  1  0
 16  1  1  0
 16  6  2  0
 17  2  1  0
 20 14  1  0
 21  2  1  0
 21 14  1  0
 22 15  1  0
 22  3  1  0
 23 10  1  0
 23 19  1  0
M  END
$$$$

     RDKit          3D

 17 19  0  0  0  0  0  0  0  0999 V2000
   -3.6580  -12.3140   15.1770 N   0  0  0  0  0  0  0  0  0  0  0  0
   -3.8650  -10.3580   20.4450 C   0  0  0  0  0  0  0  0  0  0  0  0
   -3.7080  -11.9840   17.5440 C   0  0  0  0  0  0  0  0  0  0  0  0
   -2.1630  -11.6450   20.6500 C   0  0  0  0  0  0  0  0  0  0  0  0
   -2.3990  -10.5520   16.0570 C   0  0  0  0  0  0  0  0  0  0  0  0
   -1.7930   -8.8460   18.1490 N   0  0  0  0  0  0  0  0  0  0  0  0
   -1.5450   -9.5560   15.8720 N   0  0  0  0  0  0  0  0  0  0  0  0
   -1.2880   -8.7260   16.9070 C   0  0  0  0  0  0  0  0  0  0  0  0
   -2.3090  -10.0590   18.4800 C   0  0  0  0  0  0  0  0  0  0  0  0
   -2.8790  -11.3220   14.9440 C   0  0  0  0  0  0  0  0  0  0  0  0
   -2.2740  -10.2800   20.0310 C   0  0  0  0  0  0  0  0  0  0  0  0
   -1.4630  -11.4040   22.0630 C   0  0  0  0  0  0  0  0  0  0  0  0
   -2.5940  -10.8860   13.6690 N   0  0  0  0  0  0  0  0  0  0  0  0
   -0.8730   -9.5960   20.5390 C   0  0  0  0  0  0  0  0  0  0  0  0
   -2.8170  -10.8890   17.4200 C   0  0  0  0  0  0  0  0  0  0  0  0
   -0.3680  -10.4350   21.6470 C   0  0  0  0  0  0  0  0  0  0  0  0
   -4.0880  -12.6840   16.4110 C   0  0  0  0  0  0  0  0  0  0  0  0
  1 17  1  0
  4 12  1  0
  5 15  1  0
  6  9  2  0
  7  5  2  0
  7  8  1  0
  8  6  1  0
  9 11  1  0
 10  1  2  0
 10  5  1  0
 11  2  1  0
 11 14  1  0
 11  4  1  0
 13 10  1  0
 14 16  1  0
 15  3  1  0
 15  9  1  0
 16 12  1  0
 17  3  2  0
M  END
$$$$

     RDKit          3D

 30 34  0  0  0  0  0  0  0  0999 V2000
   -2.9740  -10.9070   17.2390 C   0  0  0  0  0  0  0  0  0  0  0  0
   -3.5450  -10.7380   23.6510 O   0  0  0  0  0  0  0  0  0  0  0  0
   -3.8870  -13.0020   16.3500 C   0  0  0  0  0  0  0  0  0  0  0  0
   -4.4510  -12.1780   18.5540 C   0  0  0  0  0  0  0  0  0  0  0  0
   -1.7990   -9.6620   22.5600 C   0  0  0  0  0  0  0  0  0  0  0  0
   -2.7860  -11.2100   14.9640 C   0  0  0  0  0  0  0  0  0  0  0  0
   -0.2010   -9.0710   24.0250 N   0  0  0  0  0  0  0  0  0  0  0  0
   -0.6450   -6.5140   17.1360 C   0  0  0  0  0  0  0  0  0  0  0  0
   -1.1840   -7.8710   17.5640 N   0  0  0  0  0  0  0  0  0  0  0  0
   -1.4000   -9.1500   18.1430 C   0  0  0  0  0  0  0  0  0  0  0  0
    0.5180   -9.3940   16.8330 O   0  0  0  0  0  0  0  0  0  0  0  0
   -0.5550   -6.0690   15.6370 C   0  0  0  0  0  0  0  0  0  0  0  0
   -3.9550  -12.1640   15.0970 C   0  0  0  0  0  0  0  0  0  0  0  0
   -2.9250  -10.6860   22.6750 C   0  0  0  0  0  0  0  0  0  0  0  0
   -2.4480  -10.5740   16.0610 O   0  0  0  0  0  0  0  0  0  0  0  0
   -0.5500   -9.7770   22.0120 C   0  0  0  0  0  0  0  0  0  0  0  0
   -2.6400   -9.9540   12.9750 N   0  0  0  0  0  0  0  0  0  0  0  0
   -4.1080  -11.4030   19.5550 C   0  0  0  0  0  0  0  0  0  0  0  0
   -2.5290  -10.1050   18.2440 C   0  0  0  0  0  0  0  0  0  0  0  0
   -2.0940  -10.8080   13.8150 C   0  0  0  0  0  0  0  0  0  0  0  0
   -0.7390  -11.2000   13.8130 O   0  0  0  0  0  0  0  0  0  0  0  0
   -4.6240  -11.6880   20.9990 C   0  0  0  0  0  0  0  0  0  0  0  0
   -3.6900  -11.1350   21.8250 N   0  0  0  0  0  0  0  0  0  0  0  0
   -1.5680   -9.2500   23.9000 O   0  0  0  0  0  0  0  0  0  0  0  0
    0.6420   -6.2300   16.6080 C   0  0  0  0  0  0  0  0  0  0  0  0
   -3.7570  -11.9580   17.3920 C   0  0  0  0  0  0  0  0  0  0  0  0
   -1.6550   -5.4040   17.6140 C   0  0  0  0  0  0  0  0  0  0  0  0
    0.3010   -9.0210   22.8260 C   0  0  0  0  0  0  0  0  0  0  0  0
   -0.4140   -8.8130   17.3400 C   0  0  0  0  0  0  0  0  0  0  0  0
   -3.1890  -10.4040   19.3900 C   0  0  0  0  0  0  0  0  0  0  0  0
  1 26  4  0
  1 19  4  0
  3 26  1  0
  4 18  4  0
  5 14  1  0
  5 24  1  0
  6 20  1  0
  6 13  1  0
  6 15  1  0
  8  9  1  0
  8 27  1  0
  9 10  1  0
 10 19  1  0
 11 29  2  0
 12 25  1  0
 12  8  1  0
 13  3  1  0
 14  2  2  0
 15  1  1  0
 16  5  1  0
 16 28  1  0
 17 20  1  0
 18 22  1  0
 19 30  4  0
 21 20  2  0
 22 23  1  0
 23 14  1  0
 24  7  1  0
 25  8  1  0
 26  4  4  0
 28  7  1  0
 29  9  1  0
 29 10  1  0
 30 18  4  0
M  END
$$$$

     RDKit          3D

 37 40  0  0  0  0  0  0  0  0999 V2000
   -4.0670  -12.7870   15.4020 C   0  0  0  0  0  0  0  0  0  0  0  0
   -3.6670  -11.3510   23.2070 C   0  0  0  0  0  0  0  0  0  0  0  0
    1.3950   -6.5050   12.5090 C   0  0  0  0  0  0  0  0  0  0  0  0
    1.8300   -6.7080   11.2980 N   0  0  0  0  0  0  0  0  0  0  0  0
   -1.1050   -9.9440   22.8830 C   0  0  0  0  0  0  0  0  0  0  0  0
   -0.4830  -10.5930   21.8370 O   0  0  0  0  0  0  0  0  0  0  0  0
    0.3900   -8.6480   12.6900 C   0  0  0  0  0  0  0  0  0  0  0  0
   -3.9500   -8.9240   22.1330 C   0  0  0  0  0  0  0  0  0  0  0  0
    0.3380   -8.3690   22.6800 O   0  0  0  0  0  0  0  0  0  0  0  0
   -4.7280  -11.9710   19.7620 C   0  0  0  0  0  0  0  0  0  0  0  0
   -0.3590   -9.5380   13.3850 C   0  0  0  0  0  0  0  0  0  0  0  0
   -4.6440  -11.0310   25.1840 O   0  0  0  0  0  0  0  0  0  0  0  0
   -3.8990  -11.2980   19.0200 C   0  0  0  0  0  0  0  0  0  0  0  0
    1.5180   -7.9610   10.7410 C   0  0  0  0  0  0  0  0  0  0  0  0
   -0.7550   -9.2640   14.7720 C   0  0  0  0  0  0  0  0  0  0  0  0
   -1.4850  -10.0940   15.4300 N   0  0  0  0  0  0  0  0  0  0  0  0
    2.0430   -8.2180    9.4230 N   0  0  0  0  0  0  0  0  0  0  0  0
   -2.4910   -9.0870   18.2940 C   0  0  0  0  0  0  0  0  0  0  0  0
   -4.2020  -12.8090   16.6580 C   0  0  0  0  0  0  0  0  0  0  0  0
   -0.3830   -9.0010   23.3880 C   0  0  0  0  0  0  0  0  0  0  0  0
   -2.6450   -8.1670   21.8590 O   0  0  0  0  0  0  0  0  0  0  0  0
   -3.1100  -11.8900   14.7170 N   0  0  0  0  0  0  0  0  0  0  0  0
    0.3910   -7.2050   14.6490 C   0  0  0  0  0  0  0  0  0  0  0  0
   -2.5850  -10.4370   23.0360 N   0  0  0  0  0  0  0  0  0  0  0  0
   -3.0770  -10.8700   16.8530 C   0  0  0  0  0  0  0  0  0  0  0  0
    0.7410   -7.4370   13.2570 C   0  0  0  0  0  0  0  0  0  0  0  0
   -4.9110  -12.1240   21.2370 C   0  0  0  0  0  0  0  0  0  0  0  0
   -4.7920  -11.1380   23.7290 C   0  0  0  0  0  0  0  0  0  0  0  0
   -2.4860  -11.0540   15.5110 C   0  0  0  0  0  0  0  0  0  0  0  0
   -1.7530   -7.8860   25.0480 O   0  0  0  0  0  0  0  0  0  0  0  0
   -3.7880  -11.1940   21.8240 C   0  0  0  0  0  0  0  0  0  0  0  0
    0.8260   -8.9630   11.4430 C   0  0  0  0  0  0  0  0  0  0  0  0
   -3.4600   -9.9690   21.5400 C   0  0  0  0  0  0  0  0  0  0  0  0
   -0.6360   -8.4870   24.7520 C   0  0  0  0  0  0  0  0  0  0  0  0
   -0.2550   -8.1170   15.2660 N   0  0  0  0  0  0  0  0  0  0  0  0
   -3.6870  -11.7690   17.5280 C   0  0  0  0  0  0  0  0  0  0  0  0
   -3.3320  -10.3170   18.7970 C   0  0  0  0  0  0  0  0  0  0  0  0
  1 19  2  0
  2 28  1  0
  3 26  1  0
  4  3  1  0
  5 24  1  0
  5 20  1  0
  6  5  2  0
  7 26  4  0
  7 11  4  0
  9 20  2  0
 10 27  1  0
 11 15  4  0
 13 10  1  0
 14  4  2  0
 14 32  1  0
 15 35  4  0
 15 16  1  0
 16 29  1  0
 17 14  1  0
 18 37  1  0
 19 36  1  0
 20 34  1  0
 21  8  1  0
 22  1  1  0
 22 29  2  0
 23 35  4  0
 24  2  1  0
 25 36  1  0
 26 23  4  0
 28 12  1  0
 29 25  1  0
 31 27  1  0
 31  2  1  0
 32  7  1  0
 33 31  1  0
 33  8  1  0
 33 24  1  0
 34 30  1  0
 36 13  2  3
 37 13  1  0
M  END
$$$$

     RDKit          3D

 37 44  0  0  0  0  0  0  0  0999 V2000
   -1.0300   -7.1070   20.1550 C   0  0  0  0  0  0  0  0  0  0  0  0
   -4.2250  -10.6830   22.2670 C   0  0  0  0  0  0  0  0  0  0  0  0
   -3.1610  -12.5770   16.4150 C   0  0  0  0  0  0  0  0  0  0  0  0
   -0.6690   -9.6500   13.9990 C   0  0  0  0  0  0  0  0  0  0  0  0
    0.6890   -8.2790   12.6470 C   0  0  0  0  0  0  0  0  0  0  0  0
   -4.8830  -11.9410   22.3330 C   0  0  0  0  0  0  0  0  0  0  0  0
   -1.1460  -11.2110   21.0040 C   0  0  0  0  0  0  0  0  0  0  0  0
   -1.8390   -9.2560   17.2750 C   0  0  0  0  0  0  0  0  0  0  0  0
   -5.7870  -13.3460   24.2060 C   0  0  0  0  0  0  0  0  0  0  0  0
   -4.8040  -12.3490   23.6750 C   0  0  0  0  0  0  0  0  0  0  0  0
   -3.3270  -10.7340   23.2560 N   0  0  0  0  0  0  0  0  0  0  0  0
   -2.6740  -10.3130   17.3080 N   0  0  0  0  0  0  0  0  0  0  0  0
   -0.6290   -8.7000   15.0010 C   0  0  0  0  0  0  0  0  0  0  0  0
   -4.3010  -12.5660   15.1810 C   0  0  0  0  0  0  0  0  0  0  0  0
   -2.4630   -9.7570   19.4270 C   0  0  0  0  0  0  0  0  0  0  0  0
   -2.3000  -10.0770   20.9150 C   0  0  0  0  0  0  0  0  0  0  0  0
    0.6430   -7.2800   13.6160 C   0  0  0  0  0  0  0  0  0  0  0  0
   -3.6400  -10.6490   21.0040 O   0  0  0  0  0  0  0  0  0  0  0  0
   -4.1420  -11.4130   18.4820 C   0  0  0  0  0  0  0  0  0  0  0  0
   -1.1750   -7.6430   18.8490 C   0  0  0  0  0  0  0  0  0  0  0  0
   -0.6480   -6.6380   18.0380 C   0  0  0  0  0  0  0  0  0  0  0  0
    1.4510   -7.8760   11.1470 Cl  0  0  0  0  0  0  0  0  0  0  0  0
    0.0280   -9.4420   12.8160 C   0  0  0  0  0  0  0  0  0  0  0  0
    0.0340   -7.4820   14.7880 C   0  0  0  0  0  0  0  0  0  0  0  0
   -3.8140  -11.6610   24.2230 N   0  0  0  0  0  0  0  0  0  0  0  0
   -2.3350   -9.6810   23.4420 C   0  0  0  0  0  0  0  0  0  0  0  0
   -0.5180   -5.8600   20.0260 N   0  0  0  0  0  0  0  0  0  0  0  0
   -1.3110   -8.7080   16.1840 O   0  0  0  0  0  0  0  0  0  0  0  0
   -1.9500   -9.2060   22.1060 C   0  0  0  0  0  0  0  0  0  0  0  0
   -3.1850  -10.4030   18.6370 N   0  0  0  0  0  0  0  0  0  0  0  0
   -4.3360  -13.2910   16.3060 C   0  0  0  0  0  0  0  0  0  0  0  0
   -0.8600   -9.5440   23.1130 C   0  0  0  0  0  0  0  0  0  0  0  0
   -3.6060  -11.6960   14.4560 O   0  0  0  0  0  0  0  0  0  0  0  0
   -5.4400  -12.5900   21.3850 O   0  0  0  0  0  0  0  0  0  0  0  0
   -0.0960   -5.6130   18.6350 N   0  0  0  0  0  0  0  0  0  0  0  0
   -3.4400  -11.2760   16.9920 C   0  0  0  0  0  0  0  0  0  0  0  0
   -1.7290   -8.8370   18.5710 C   0  0  0  0  0  0  0  0  0  0  0  0
  2 18  1  0
  2  6  1  0
  2 11  1  0
  3 31  1  0
  3 36  1  0
  4 13  4  0
  5 23  4  0
  5 17  4  0
  6 10  1  0
  8 28  1  0
  8 12  1  0
  8 37  1  0
 10  9  1  0
 10 25  2  0
 11 26  1  0
 11 25  1  0
 12 30  1  0
 13 28  1  0
 14 33  1  0
 14 31  1  0
 14  3  1  0
 15 16  1  0
 16 18  1  0
 16  7  1  0
 16 29  1  0
 17 24  4  0
 19 30  1  0
 20  1  1  0
 21 35  1  0
 21 20  2  0
 22  5  1  0
 23  4  4  0
 24 13  4  0
 26 32  1  0
 27  1  1  0
 29 32  1  0
 29 26  1  0
 30 15  1  0
 34  6  2  0
 35 27  1  0
 36 12  1  0
 36 19  1  0
 37 20  1  0
 37 15  2  0
M  END
$$$$

     RDKit          3D

 21 23  0  0  0  0  0  0  0  0999 V2000
   -3.3370  -12.1650   15.1070 N   0  0  0  0  0  0  0  0  0  0  0  0
   -4.0360  -12.6510   16.3110 C   0  0  0  0  0  0  0  0  0  0  0  0
   -2.9230  -10.8820   17.6730 C   0  0  0  0  0  0  0  0  0  0  0  0
   -1.3640   -9.3830   16.7990 C   0  0  0  0  0  0  0  0  0  0  0  0
   -1.5590  -10.8540   22.1760 C   0  0  0  0  0  0  0  0  0  0  0  0
   -2.8410  -10.1050   20.1490 N   0  0  0  0  0  0  0  0  0  0  0  0
   -4.6100  -12.2600   18.6930 C   0  0  0  0  0  0  0  0  0  0  0  0
   -2.7210  -11.5600   22.0720 F   0  0  0  0  0  0  0  0  0  0  0  0
   -2.5400  -11.0980   15.1590 C   0  0  0  0  0  0  0  0  0  0  0  0
   -1.1290  -10.7010   23.2760 F   0  0  0  0  0  0  0  0  0  0  0  0
   -2.0970   -9.6390   21.3520 C   0  0  0  0  0  0  0  0  0  0  0  0
   -1.7460   -8.9340   18.1660 C   0  0  0  0  0  0  0  0  0  0  0  0
   -2.0530  -10.5010   14.0190 N   0  0  0  0  0  0  0  0  0  0  0  0
   -1.3740   -7.6570   18.6520 C   0  0  0  0  0  0  0  0  0  0  0  0
    0.1830   -7.5090   16.6750 C   0  0  0  0  0  0  0  0  0  0  0  0
   -3.7810  -11.9230   17.4930 C   0  0  0  0  0  0  0  0  0  0  0  0
   -2.2190  -10.4850   16.4090 C   0  0  0  0  0  0  0  0  0  0  0  0
   -0.2750   -8.7530   16.1020 C   0  0  0  0  0  0  0  0  0  0  0  0
   -2.5050   -9.9840   18.7760 C   0  0  0  0  0  0  0  0  0  0  0  0
   -0.5250   -6.8250   17.8060 C   0  0  0  0  0  0  0  0  0  0  0  0
   -0.7740  -11.4410   21.2760 F   0  0  0  0  0  0  0  0  0  0  0  0
  1  9  4  0
  1  2  4  0
  2 16  4  0
  3 19  1  0
  4 18  1  0
  4 12  1  0
  5 10  1  0
  6 11  1  0
  8  5  1  0
  9 17  4  0
 11  5  1  0
 12 14  1  0
 12 19  2  0
 13  9  1  0
 15 20  1  0
 16  3  4  0
 16  7  1  0
 17  4  1  0
 17  3  4  0
 18 15  2  0
 19  6  1  0
 20 14  2  0
 21  5  1  0
M  END
$$$$

     RDKit          3D

 26 28  0  0  0  0  0  0  0  0999 V2000
   -0.4430   -9.2590   15.2060 N   0  0  0  0  0  0  0  0  0  0  0  0
   -1.6770   -9.2610   16.3580 C   0  0  0  0  0  0  0  0  0  0  0  0
   -1.1180   -7.6480   20.0330 C   0  0  0  0  0  0  0  0  0  0  0  0
   -1.9890   -9.8530   19.3710 C   0  0  0  0  0  0  0  0  0  0  0  0
    0.0410   -9.7750   13.0030 O   0  0  0  0  0  0  0  0  0  0  0  0
   -0.7160   -9.8800   14.0460 C   0  0  0  0  0  0  0  0  0  0  0  0
   -2.6510  -10.5570   16.1290 C   0  0  0  0  0  0  0  0  0  0  0  0
   -4.4410  -12.1500   15.2590 C   0  0  0  0  0  0  0  0  0  0  0  0
   -1.6200   -8.4970   18.9990 C   0  0  0  0  0  0  0  0  0  0  0  0
   -1.9820  -10.2630   20.7240 C   0  0  0  0  0  0  0  0  0  0  0  0
   -2.6860  -11.3390   21.2310 O   0  0  0  0  0  0  0  0  0  0  0  0
   -0.9330  -10.1340   22.9230 C   0  0  0  0  0  0  0  0  0  0  0  0
   -2.5130  -11.4440   17.1340 C   0  0  0  0  0  0  0  0  0  0  0  0
   -4.8230  -12.4930   21.3430 C   0  0  0  0  0  0  0  0  0  0  0  0
   -1.2310   -9.5030   21.6340 C   0  0  0  0  0  0  0  0  0  0  0  0
   -0.5280  -11.2570   23.0740 O   0  0  0  0  0  0  0  0  0  0  0  0
   -4.1840  -11.2390   21.6240 C   0  0  0  0  0  0  0  0  0  0  0  0
   -0.7080   -6.5390   19.6850 O   0  0  0  0  0  0  0  0  0  0  0  0
   -4.2510  -13.0040   16.4290 C   0  0  0  0  0  0  0  0  0  0  0  0
   -1.8300  -10.4300   13.8890 N   0  0  0  0  0  0  0  0  0  0  0  0
   -1.7290   -7.9730   17.4040 S   0  0  0  0  0  0  0  0  0  0  0  0
   -3.7110  -11.0530   15.1500 C   0  0  0  0  0  0  0  0  0  0  0  0
   -5.0100  -11.3360   20.3810 C   0  0  0  0  0  0  0  0  0  0  0  0
   -1.1320   -9.5160   24.0030 O   0  0  0  0  0  0  0  0  0  0  0  0
   -3.1860  -12.5680   17.3170 C   0  0  0  0  0  0  0  0  0  0  0  0
   -0.8480   -8.1600   21.3510 C   0  0  0  0  0  0  0  0  0  0  0  0
  2  1  1  0
  2 21  1  0
  3 26  1  0
  4 10  1  0
  5  6  2  0
  6  1  1  0
  7  2  1  0
  7 13  4  0
  8 19  4  0
  9  4  2  0
  9  3  1  0
 10 11  1  0
 10 15  1  0
 11 17  1  0
 12 16  2  0
 12 24  1  0
 13 25  4  0
 14 17  1  0
 15 12  1  0
 18  3  2  0
 19 25  4  0
 20  6  1  0
 21  9  1  0
 22  8  4  0
 22  7  4  0
 23 14  1  0
 23 17  1  0
 26 15  2  0
M  END
$$$$

     RDKit          3D

 22 24  0  0  0  0  0  0  0  0999 V2000
   -0.0520   -9.1590   12.2660 C   0  0  0  0  0  0  0  0  0  0  0  0
   -1.2350   -9.0190   13.0960 O   0  0  0  0  0  0  0  0  0  0  0  0
   -4.2710  -12.5580   17.4500 C   0  0  0  0  0  0  0  0  0  0  0  0
    0.1820   -8.6160   16.0980 O   0  0  0  0  0  0  0  0  0  0  0  0
   -2.5530  -11.4570   15.3180 C   0  0  0  0  0  0  0  0  0  0  0  0
   -1.2560   -9.7530   14.3160 C   0  0  0  0  0  0  0  0  0  0  0  0
   -2.9990   -9.4530   21.6250 C   0  0  0  0  0  0  0  0  0  0  0  0
   -2.2010  -10.3790   20.7420 C   0  0  0  0  0  0  0  0  0  0  0  0
   -3.6160  -12.3710   15.1350 N   0  0  0  0  0  0  0  0  0  0  0  0
   -0.6370  -11.2900   22.7230 C   0  0  0  0  0  0  0  0  0  0  0  0
   -3.0350  -10.9270   19.9010 N   0  0  0  0  0  0  0  0  0  0  0  0
   -1.2810   -8.9450   15.8230 C   0  0  0  0  0  0  0  0  0  0  0  0
   -0.9450  -11.1000   21.0260 C   0  0  0  0  0  0  0  0  0  0  0  0
   -1.9240  -10.8750   14.1680 C   0  0  0  0  0  0  0  0  0  0  0  0
   -2.9210  -10.7110   18.5550 N   0  0  0  0  0  0  0  0  0  0  0  0
   -2.6880  -10.5670   17.4000 C   0  0  0  0  0  0  0  0  0  0  0  0
   -0.6140  -10.2120   23.3450 C   0  0  0  0  0  0  0  0  0  0  0  0
   -1.2590   -8.9920   23.2100 C   0  0  0  0  0  0  0  0  0  0  0  0
   -4.1890  -12.9910   16.1440 C   0  0  0  0  0  0  0  0  0  0  0  0
   -2.3940   -8.5220   22.5100 C   0  0  0  0  0  0  0  0  0  0  0  0
   -3.5390  -11.5290   17.6280 C   0  0  0  0  0  0  0  0  0  0  0  0
   -1.7720  -10.1260   16.6960 N   0  0  0  0  0  0  0  0  0  0  0  0
  1  2  1  0
  6  2  1  0
  6 12  1  0
  7 20  1  0
  8 11  1  0
  8 13  1  0
  8  7  1  0
  9  5  2  3
  9 19  1  0
 10 17  1  0
 12  4  1  0
 12 22  1  0
 13 10  1  0
 14  6  1  0
 14  5  1  0
 15 11  1  0
 16 21  1  0
 16 15  1  0
 18 17  1  0
 19  3  1  0
 20 18  2  0
 21  3  1  0
 21 15  1  0
 22 16  2  3
M  END
$$$$

     RDKit          3D

 25 27  0  0  0  0  0  0  0  0999 V2000
    1.4920   -5.7790   13.4590 C   0  0  0  0  0  0  0  0  0  0  0  0
   -1.1480   -9.9570   21.9610 C   0  0  0  0  0  0  0  0  0  0  0  0
   -4.7500  -11.3440   20.4080 C   0  0  0  0  0  0  0  0  0  0  0  0
   -0.4220   -8.8370   15.0630 C   0  0  0  0  0  0  0  0  0  0  0  0
   -1.2810  -10.8170   20.7960 C   0  0  0  0  0  0  0  0  0  0  0  0
   -4.5020  -11.4580   18.9230 C   0  0  0  0  0  0  0  0  0  0  0  0
   -4.1550  -13.6160   15.6980 O   0  0  0  0  0  0  0  0  0  0  0  0
   -2.5270  -10.9490   17.3450 C   0  0  0  0  0  0  0  0  0  0  0  0
    0.5950   -8.0920   12.9090 C   0  0  0  0  0  0  0  0  0  0  0  0
   -4.6160  -10.2860   23.1850 O   0  0  0  0  0  0  0  0  0  0  0  0
   -3.5440  -10.0730   22.3100 C   0  0  0  0  0  0  0  0  0  0  0  0
   -2.6850  -11.8140   15.0500 N   0  0  0  0  0  0  0  0  0  0  0  0
   -0.3900   -8.7940   13.6790 O   0  0  0  0  0  0  0  0  0  0  0  0
    0.1230   -8.0580   15.7620 O   0  0  0  0  0  0  0  0  0  0  0  0
   -1.7140   -9.9830   16.9370 C   0  0  0  0  0  0  0  0  0  0  0  0
   -4.0780  -12.7440   16.6760 O   0  0  0  0  0  0  0  0  0  0  0  0
   -3.7580  -10.6420   21.0310 C   0  0  0  0  0  0  0  0  0  0  0  0
   -2.3850   -9.6260   22.8230 C   0  0  0  0  0  0  0  0  0  0  0  0
   -5.7800  -11.8170   21.0440 O   0  0  0  0  0  0  0  0  0  0  0  0
    0.2690   -6.6130   12.8220 C   0  0  0  0  0  0  0  0  0  0  0  0
   -2.4710  -10.4390   20.0240 C   0  0  0  0  0  0  0  0  0  0  0  0
   -3.0760  -11.8780   16.3140 C   0  0  0  0  0  0  0  0  0  0  0  0
   -3.0150  -11.1410   18.7650 C   0  0  0  0  0  0  0  0  0  0  0  0
   -1.2650   -9.9870   15.5510 C   0  0  0  0  0  0  0  0  0  0  0  0
   -1.7860  -10.9000   14.7020 C   0  0  0  0  0  0  0  0  0  0  0  0
  2 18  1  0
  3 17  2  0
  3 19  1  0
  4 24  1  0
  4 14  2  0
  5  2  1  0
  6  3  1  0
  7 16  1  0
  9 13  1  0
 11 18  1  0
 11 10  1  0
 12 22  4  0
 13  4  1  0
 15  8  4  0
 17 11  1  0
 20  9  1  0
 20  1  1  0
 21  5  1  0
 21 17  1  0
 22 16  1  0
 22  8  4  0
 23  8  1  0
 23  6  1  0
 23 21  1  0
 24 15  4  0
 25 12  4  0
 25 24  4  0
M  END
$$$$

     RDKit          3D

 30 34  0  0  0  0  0  0  0  0999 V2000
   -2.5220  -12.0850   16.2080 N   0  0  0  0  0  0  0  0  0  0  0  0
   -4.5100  -12.9470   15.5520 C   0  0  0  0  0  0  0  0  0  0  0  0
   -0.2710  -10.1720   23.0910 O   0  0  0  0  0  0  0  0  0  0  0  0
   -4.5690  -11.4680   23.0270 C   0  0  0  0  0  0  0  0  0  0  0  0
   -3.2730  -12.1560   17.5620 C   0  0  0  0  0  0  0  0  0  0  0  0
   -0.4620   -9.8110   14.3520 N   0  0  0  0  0  0  0  0  0  0  0  0
   -4.3430  -11.6710   20.5560 C   0  0  0  0  0  0  0  0  0  0  0  0
   -0.0170   -6.5370   16.0510 C   0  0  0  0  0  0  0  0  0  0  0  0
    0.1170   -9.4480   22.1650 C   0  0  0  0  0  0  0  0  0  0  0  0
   -3.8940  -10.8640   14.8180 F   0  0  0  0  0  0  0  0  0  0  0  0
   -3.3570  -11.9340   15.1050 C   0  0  0  0  0  0  0  0  0  0  0  0
    0.4100   -5.8100   14.9820 C   0  0  0  0  0  0  0  0  0  0  0  0
   -1.9640   -8.2390   22.7890 C   0  0  0  0  0  0  0  0  0  0  0  0
   -0.2570   -8.4870   14.6930 C   0  0  0  0  0  0  0  0  0  0  0  0
   -1.4320   -9.6640   22.4700 C   0  0  0  0  0  0  0  0  0  0  0  0
   -2.8080  -11.3350   18.7200 C   0  0  0  0  0  0  0  0  0  0  0  0
    0.2190   -7.7490   13.6420 C   0  0  0  0  0  0  0  0  0  0  0  0
   -2.8990  -11.3030   20.5910 C   0  0  0  0  0  0  0  0  0  0  0  0
   -0.1010   -9.8120   13.0310 C   0  0  0  0  0  0  0  0  0  0  0  0
   -3.1820  -11.1520   23.0180 C   0  0  0  0  0  0  0  0  0  0  0  0
   -2.3370   -7.6730   21.5330 O   0  0  0  0  0  0  0  0  0  0  0  0
   -2.5030  -10.6130   22.0360 C   0  0  0  0  0  0  0  0  0  0  0  0
   -0.8500  -10.9420   15.0520 C   0  0  0  0  0  0  0  0  0  0  0  0
   -0.5330   -7.7890   15.9390 C   0  0  0  0  0  0  0  0  0  0  0  0
    0.3580   -8.6640   12.5600 N   0  0  0  0  0  0  0  0  0  0  0  0
   -5.1510  -11.6450   21.7810 C   0  0  0  0  0  0  0  0  0  0  0  0
   -1.7180  -10.8270   16.2250 C   0  0  0  0  0  0  0  0  0  0  0  0
    0.5420   -6.3640   13.7210 C   0  0  0  0  0  0  0  0  0  0  0  0
   -2.2650  -10.4260   18.6080 O   0  0  0  0  0  0  0  0  0  0  0  0
   -4.6250  -12.8360   17.1540 C   0  0  0  0  0  0  0  0  0  0  0  0
  1 27  1  0
  1  5  1  0
  2 30  1  0
  5 16  1  0
  6 14  1  0
  6 23  1  0
  7 18  4  0
  7 26  4  0
  9 15  1  0
  9  3  1  0
 11 10  1  0
 11  2  1  0
 11  1  1  0
 12  8  2  0
 14 24  2  0
 15 13  1  0
 15  3  1  0
 16 18  1  0
 17 28  1  0
 17 14  1  0
 18 22  4  0
 19  6  1  0
 20  4  4  0
 21 13  1  0
 22 15  1  0
 22 20  4  0
 23 27  1  0
 24  8  1  0
 25 19  1  0
 25 17  2  0
 26  4  4  0
 28 12  1  0
 29 16  2  0
 30  5  1  0
M  END
$$$$

     RDKit          3D

 20 21  0  0  0  0  0  0  0  0999 V2000
   -0.4320   -9.0950   18.8630 F   0  0  0  0  0  0  0  0  0  0  0  0
   -0.0160   -9.5380   21.4650 F   0  0  0  0  0  0  0  0  0  0  0  0
   -2.1430  -10.5380   21.6680 C   0  0  0  0  0  0  0  0  0  0  0  0
   -1.4360   -9.5960   19.3910 C   0  0  0  0  0  0  0  0  0  0  0  0
   -3.5660  -10.4860   21.2720 N   0  0  0  0  0  0  0  0  0  0  0  0
   -1.6520   -9.9530   15.7080 C   0  0  0  0  0  0  0  0  0  0  0  0
   -4.0900  -12.9000   16.3510 C   0  0  0  0  0  0  0  0  0  0  0  0
   -3.3130  -11.7830   15.6570 C   0  0  0  0  0  0  0  0  0  0  0  0
   -3.7740  -10.8370   18.8620 C   0  0  0  0  0  0  0  0  0  0  0  0
   -4.3130  -11.0630   22.2130 C   0  0  0  0  0  0  0  0  0  0  0  0
   -2.2780  -10.6160   18.9360 C   0  0  0  0  0  0  0  0  0  0  0  0
   -1.8720  -10.6820   22.9480 O   0  0  0  0  0  0  0  0  0  0  0  0
   -2.1390  -10.8540   17.6510 O   0  0  0  0  0  0  0  0  0  0  0  0
   -3.1950  -11.6760   14.2950 N   0  0  0  0  0  0  0  0  0  0  0  0
   -1.3430   -9.6180   20.9600 C   0  0  0  0  0  0  0  0  0  0  0  0
   -4.0290  -12.1470   18.9490 O   0  0  0  0  0  0  0  0  0  0  0  0
   -2.5640  -10.9050   16.3930 C   0  0  0  0  0  0  0  0  0  0  0  0
   -4.3460  -10.0880   20.0210 C   0  0  0  0  0  0  0  0  0  0  0  0
   -1.5800   -9.9550   14.4120 C   0  0  0  0  0  0  0  0  0  0  0  0
   -2.4420  -10.8220   13.9020 C   0  0  0  0  0  0  0  0  0  0  0  0
  3 12  2  0
  4  1  1  0
  4 15  1  0
  5  3  1  0
  5 10  1  0
  6 17  4  0
  8  7  1  0
  8 17  4  0
  9 11  1  0
  9 16  1  0
  9 18  1  0
 11 13  1  0
 11  4  1  0
 14  8  4  0
 15  2  1  0
 15  3  1  0
 17 13  1  0
 18  5  1  0
 19  6  4  0
 20 14  4  0
 20 19  4  0
M  END
$$$$

     RDKit          3D

 17 18  0  0  0  0  0  0  0  0999 V2000
   -0.0120   -5.3080   15.9880 C   0  0  0  0  0  0  0  0  0  0  0  0
   -0.9070   -9.1240   17.0250 C   0  0  0  0  0  0  0  0  0  0  0  0
   -0.6600   -9.2770   14.5560 C   0  0  0  0  0  0  0  0  0  0  0  0
   -1.1020   -9.7560   15.7360 N   0  0  0  0  0  0  0  0  0  0  0  0
   -4.2690  -12.3760   15.2390 C   0  0  0  0  0  0  0  0  0  0  0  0
    0.8590   -6.2180   15.6060 O   0  0  0  0  0  0  0  0  0  0  0  0
    1.2310   -7.4270   12.6060 C   0  0  0  0  0  0  0  0  0  0  0  0
   -0.2290   -8.2630   14.5970 C   0  0  0  0  0  0  0  0  0  0  0  0
   -4.4850  -12.3140   16.8250 C   0  0  0  0  0  0  0  0  0  0  0  0
   -1.8170  -10.7720   15.9230 C   0  0  0  0  0  0  0  0  0  0  0  0
   -0.2610   -7.7600   17.0560 C   0  0  0  0  0  0  0  0  0  0  0  0
   -1.9010  -11.8400   15.5090 C   0  0  0  0  0  0  0  0  0  0  0  0
    0.0080   -7.7110   13.2000 O   0  0  0  0  0  0  0  0  0  0  0  0
   -2.8080  -10.7380   16.1510 C   0  0  0  0  0  0  0  0  0  0  0  0
   -2.9160  -12.6840   15.1140 O   0  0  0  0  0  0  0  0  0  0  0  0
   -3.3130  -11.5850   17.3840 C   0  0  0  0  0  0  0  0  0  0  0  0
    0.2690   -7.2990   15.7020 C   0  0  0  0  0  0  0  0  0  0  0  0
  2 11  1  0
  3  8  2  0
  3  4  1  0
  4 10  1  0
  4  2  1  0
  5  9  1  0
  6 17  1  0
  6  1  1  0
  7 13  1  0
  8 17  1  0
  9 16  1  0
 10 12  1  0
 10 14  1  0
 13  8  1  0
 14 16  1  0
 15  5  1  0
 15 12  1  0
 17 11  2  0
M  END
$$$$
