
     RDKit          3D

 20 21  0  0  0  0  0  0  0  0999 V2000
    0.3380   -9.6080   22.0170 F   0  0  0  0  0  0  0  0  0  0  0  0
   -3.8040  -10.5160   18.1890 O   0  0  0  0  0  0  0  0  0  0  0  0
   -3.9180  -13.5510   15.2080 N   0  0  0  0  0  0  0  0  0  0  0  0
   -4.0100   -9.9300   20.7980 C   0  0  0  0  0  0  0  0  0  0  0  0
   -4.7350  -11.2160   20.3480 C   0  0  0  0  0  0  0  0  0  0  0  0
   -1.0640   -9.8810   13.5920 C   0  0  0  0  0  0  0  0  0  0  0  0
   -1.6980  -10.3890   16.9120 C   0  0  0  0  0  0  0  0  0  0  0  0
   -0.6870   -9.3720   23.9550 F   0  0  0  0  0  0  0  0  0  0  0  0
   -4.2390  -11.5820   18.9400 C   0  0  0  0  0  0  0  0  0  0  0  0
   -3.4250  -11.3790   15.8710 C   0  0  0  0  0  0  0  0  0  0  0  0
   -3.0420  -10.8350   17.0550 C   0  0  0  0  0  0  0  0  0  0  0  0
   -2.0800  -10.6440   13.7210 N   0  0  0  0  0  0  0  0  0  0  0  0
   -0.6090  -11.3530   23.0100 F   0  0  0  0  0  0  0  0  0  0  0  0
   -0.6840   -9.4740   14.7960 N   0  0  0  0  0  0  0  0  0  0  0  0
   -1.5590  -10.0160   15.5830 C   0  0  0  0  0  0  0  0  0  0  0  0
   -0.7300   -9.9820   22.8030 C   0  0  0  0  0  0  0  0  0  0  0  0
   -2.4790  -10.7840   14.9590 C   0  0  0  0  0  0  0  0  0  0  0  0
   -1.9610   -9.6360   22.0360 C   0  0  0  0  0  0  0  0  0  0  0  0
   -2.5300  -10.3460   21.0600 C   0  0  0  0  0  0  0  0  0  0  0  0
   -4.4380  -12.3360   15.7050 C   0  0  0  0  0  0  0  0  0  0  0  0
  1 16  1  0
  2  9  1  0
  3 20  1  0
  4 19  1  0
  5  4  1  0
  6 12  1  0
  6 14  1  0
  7 11  1  0
  9  5  1  0
 10 20  1  0
 10 11  1  0
 11  2  1  0
 12 17  2  0
 14 15  2  0
 15  7  1  0
 16 13  1  0
 16  8  1  0
 17 15  1  0
 17 10  1  0
 18 16  1  0
 19 18  1  0
M  END
$$$$

     RDKit          3D

 21 22  0  0  0  0  0  0  0  0999 V2000
   -1.6340   -9.4700   17.6720 S   0  0  0  0  0  0  0  0  0  0  0  0
   -1.9560   -6.0010   20.3850 O   0  0  0  0  0  0  0  0  0  0  0  0
   -2.5110  -11.5030   22.1270 O   0  0  0  0  0  0  0  0  0  0  0  0
   -1.1190   -9.1010   20.9090 C   0  0  0  0  0  0  0  0  0  0  0  0
   -2.0390   -6.1160   22.7170 O   0  0  0  0  0  0  0  0  0  0  0  0
   -1.8850   -6.6500   21.5610 C   0  0  0  0  0  0  0  0  0  0  0  0
   -2.0820  -10.2650   19.0400 C   0  0  0  0  0  0  0  0  0  0  0  0
   -2.0100   -8.0910   21.6640 C   0  0  0  0  0  0  0  0  0  0  0  0
   -0.6520  -10.0150   14.5340 C   0  0  0  0  0  0  0  0  0  0  0  0
   -0.0090   -9.7470   21.6580 C   0  0  0  0  0  0  0  0  0  0  0  0
   -3.9600  -11.3770   20.5100 O   0  0  0  0  0  0  0  0  0  0  0  0
   -2.0430  -10.1110   20.3500 N   0  0  0  0  0  0  0  0  0  0  0  0
   -3.7890  -11.5560   14.6380 C   0  0  0  0  0  0  0  0  0  0  0  0
   -4.3780  -12.6440   15.3850 C   0  0  0  0  0  0  0  0  0  0  0  0
   -1.6400  -10.8440   15.2730 N   0  0  0  0  0  0  0  0  0  0  0  0
   -2.7460  -11.0490   18.4310 C   0  0  0  0  0  0  0  0  0  0  0  0
   -4.1230  -12.5470   16.8750 C   0  0  0  0  0  0  0  0  0  0  0  0
   -2.3600  -11.6180   14.5490 N   0  0  0  0  0  0  0  0  0  0  0  0
   -2.2900  -10.7590   16.8850 C   0  0  0  0  0  0  0  0  0  0  0  0
   -3.0410  -11.5050   17.3160 C   0  0  0  0  0  0  0  0  0  0  0  0
   -2.8730  -11.0350   21.0400 C   0  0  0  0  0  0  0  0  0  0  0  0
  1  7  1  0
  2  6  2  0
  4 10  1  0
  4  8  1  0
  6  8  1  0
  6  5  1  0
  7 12  1  0
  9 15  1  0
 11 21  2  0
 12  4  1  0
 12 21  1  0
 13 14  1  0
 14 17  1  0
 15 19  1  0
 16  7  1  0
 17 20  1  0
 18 13  1  0
 18 15  1  0
 19 20  1  0
 19  1  1  0
 20 16  2  0
 21  3  1  0
M  END
$$$$

     RDKit          3D

 29 33  0  0  0  0  0  0  0  0999 V2000
    0.3960   -8.9890   11.8210 C   0  0  0  0  0  0  0  0  0  0  0  0
   -0.1560   -7.8480   15.2170 N   0  0  0  0  0  0  0  0  0  0  0  0
   -2.4700  -11.2750   21.3040 C   0  0  0  0  0  0  0  0  0  0  0  0
   -2.8930   -8.5940   23.8060 C   0  0  0  0  0  0  0  0  0  0  0  0
   -4.6140  -12.4020   15.8770 C   0  0  0  0  0  0  0  0  0  0  0  0
    1.4560   -9.0590   10.9950 C   0  0  0  0  0  0  0  0  0  0  0  0
    0.7800   -6.9040   14.7120 C   0  0  0  0  0  0  0  0  0  0  0  0
   -2.5450  -10.7180   16.4720 C   0  0  0  0  0  0  0  0  0  0  0  0
   -0.6220   -9.8940   22.9770 C   0  0  0  0  0  0  0  0  0  0  0  0
    0.9830   -7.2210   13.3350 C   0  0  0  0  0  0  0  0  0  0  0  0
   -1.1000  -10.7660   20.9510 C   0  0  0  0  0  0  0  0  0  0  0  0
   -1.0910   -9.8830   14.0730 N   0  0  0  0  0  0  0  0  0  0  0  0
   -2.1290  -10.4180   14.1040 N   0  0  0  0  0  0  0  0  0  0  0  0
   -4.4210  -12.0830   20.2790 O   0  0  0  0  0  0  0  0  0  0  0  0
   -4.3510  -12.1580   17.1890 C   0  0  0  0  0  0  0  0  0  0  0  0
   -0.5360   -8.8810   23.8980 C   0  0  0  0  0  0  0  0  0  0  0  0
   -0.4630   -8.6630   14.2040 C   0  0  0  0  0  0  0  0  0  0  0  0
   -2.9880   -9.3940   22.7470 C   0  0  0  0  0  0  0  0  0  0  0  0
   -1.8810  -10.1830   22.1160 C   0  0  0  0  0  0  0  0  0  0  0  0
   -3.3140  -11.3100   17.5320 C   0  0  0  0  0  0  0  0  0  0  0  0
   -2.8700  -10.8260   18.8610 C   0  0  0  0  0  0  0  0  0  0  0  0
   -1.6210   -8.2350   24.4340 C   0  0  0  0  0  0  0  0  0  0  0  0
   -2.0080   -9.5820   19.0340 C   0  0  0  0  0  0  0  0  0  0  0  0
   -0.8270   -9.7550   19.8750 C   0  0  0  0  0  0  0  0  0  0  0  0
   -3.9040  -11.8260   14.8400 C   0  0  0  0  0  0  0  0  0  0  0  0
   -5.2660  -12.7530   17.9930 F   0  0  0  0  0  0  0  0  0  0  0  0
   -2.8530  -11.0180   15.1470 C   0  0  0  0  0  0  0  0  0  0  0  0
    0.2960   -8.3290   13.0600 N   0  0  0  0  0  0  0  0  0  0  0  0
   -3.3130  -11.4500   20.0740 C   0  0  0  0  0  0  0  0  0  0  0  0
  1 28  1  0
  3 19  1  0
  4 22  1  0
  5 15  4  0
  6  1  2  0
  7  2  4  0
  8 20  4  0
  9 16  1  0
 10  7  4  0
 11  3  1  0
 11 19  1  0
 12 13  1  0
 12 17  1  0
 13 27  1  0
 15 20  4  0
 15 26  1  0
 16 22  2  0
 17  2  4  0
 18  4  2  0
 19 18  1  0
 19  9  1  0
 20 21  1  0
 21 23  1  0
 21 29  1  0
 23 24  1  0
 24 11  1  0
 25 27  4  0
 25  5  4  0
 27  8  4  0
 28 10  4  0
 28 17  4  0
 29 14  1  0
 29  3  1  0
M  END
$$$$

     RDKit          3D

 27 29  0  0  0  0  0  0  0  0999 V2000
    0.6130   -6.4770   14.4300 C   0  0  0  0  0  0  0  0  0  0  0  0
   -2.6090  -10.9470   19.0590 C   0  0  0  0  0  0  0  0  0  0  0  0
   -0.8480   -9.9980   21.6660 C   0  0  0  0  0  0  0  0  0  0  0  0
   -1.5470  -10.8630   13.8670 N   0  0  0  0  0  0  0  0  0  0  0  0
   -3.1070  -10.3400   20.4830 C   0  0  0  0  0  0  0  0  0  0  0  0
   -2.5770   -8.9270   20.3420 F   0  0  0  0  0  0  0  0  0  0  0  0
    0.1550   -7.7880   13.9270 N   0  0  0  0  0  0  0  0  0  0  0  0
   -0.1330   -8.3030   16.0760 N   0  0  0  0  0  0  0  0  0  0  0  0
   -2.3100  -11.6910   14.5630 N   0  0  0  0  0  0  0  0  0  0  0  0
    0.4270   -8.2020   12.4940 C   0  0  0  0  0  0  0  0  0  0  0  0
   -5.3740  -11.1050   19.9350 O   0  0  0  0  0  0  0  0  0  0  0  0
    0.0290  -10.6190   22.8300 C   0  0  0  0  0  0  0  0  0  0  0  0
   -4.4240  -12.5960   16.3980 C   0  0  0  0  0  0  0  0  0  0  0  0
   -2.3160  -11.4350   15.9340 C   0  0  0  0  0  0  0  0  0  0  0  0
   -0.8080   -9.1510   16.8610 N   0  0  0  0  0  0  0  0  0  0  0  0
   -1.5480  -10.2490   16.0160 C   0  0  0  0  0  0  0  0  0  0  0  0
   -2.8010   -9.4380   23.6150 O   0  0  0  0  0  0  0  0  0  0  0  0
   -4.6140  -12.1390   21.8370 C   0  0  0  0  0  0  0  0  0  0  0  0
   -2.1660  -10.8240   21.6000 C   0  0  0  0  0  0  0  0  0  0  0  0
   -4.2140  -11.4330   23.1260 C   0  0  0  0  0  0  0  0  0  0  0  0
   -2.7740  -10.7440   22.9820 C   0  0  0  0  0  0  0  0  0  0  0  0
   -3.0650  -12.3070   16.9160 C   0  0  0  0  0  0  0  0  0  0  0  0
   -2.8040  -12.1970   18.2340 C   0  0  0  0  0  0  0  0  0  0  0  0
   -4.4770  -11.1270   20.6960 C   0  0  0  0  0  0  0  0  0  0  0  0
   -0.2940   -8.7160   14.8170 C   0  0  0  0  0  0  0  0  0  0  0  0
   -1.0190   -9.8770   14.7600 C   0  0  0  0  0  0  0  0  0  0  0  0
   -2.1610  -10.0390   18.3740 N   0  0  0  0  0  0  0  0  0  0  0  0
  2  5  1  0
  3 12  1  0
  4  9  1  0
  4 26  2  0
  5  6  1  0
  5 24  1  0
  5 19  1  0
  7  1  1  0
  7 25  1  0
  8 15  1  0
  9 14  2  0
 10  7  1  0
 11 24  2  0
 14 16  1  0
 14 22  1  0
 16 15  2  0
 18 20  1  0
 19  3  1  0
 19 21  1  0
 21 20  1  0
 21 17  1  0
 22 13  1  0
 22 23  1  0
 23  2  1  0
 24 18  1  0
 25  8  2  0
 26 25  1  0
 26 16  1  0
 27  2  2  0
M  END
$$$$

     RDKit          3D

 32 34  0  0  0  0  0  0  0  0999 V2000
   -3.5690  -11.1820   22.6700 C   0  0  0  0  0  0  0  0  0  0  0  0
    0.2860   -8.0430   13.5490 C   0  0  0  0  0  0  0  0  0  0  0  0
   -3.1240  -11.7920   16.1690 C   0  0  0  0  0  0  0  0  0  0  0  0
   -1.9820  -11.0220   14.4570 C   0  0  0  0  0  0  0  0  0  0  0  0
   -5.4630  -11.4900   23.8510 O   0  0  0  0  0  0  0  0  0  0  0  0
   -4.0090  -13.9860   16.0620 O   0  0  0  0  0  0  0  0  0  0  0  0
   -1.6530   -8.2590   22.8200 C   0  0  0  0  0  0  0  0  0  0  0  0
   -0.3720   -7.8670   23.2270 C   0  0  0  0  0  0  0  0  0  0  0  0
   -1.7880   -9.5920   22.3550 C   0  0  0  0  0  0  0  0  0  0  0  0
   -3.0810  -11.0250   19.7400 N   0  0  0  0  0  0  0  0  0  0  0  0
   -2.1380   -9.1300   19.5080 O   0  0  0  0  0  0  0  0  0  0  0  0
   -3.1630   -9.8920   21.7640 C   0  0  0  0  0  0  0  0  0  0  0  0
   -5.7260  -11.3980   21.6140 O   0  0  0  0  0  0  0  0  0  0  0  0
    0.7020   -8.8070   23.3110 C   0  0  0  0  0  0  0  0  0  0  0  0
    0.9020   -6.6670   13.3370 C   0  0  0  0  0  0  0  0  0  0  0  0
    0.2920   -6.0150   12.0430 N   0  0  0  0  0  0  0  0  0  0  0  0
   -2.8170   -9.8490   20.2400 C   0  0  0  0  0  0  0  0  0  0  0  0
   -0.1440   -8.5200   14.7350 C   0  0  0  0  0  0  0  0  0  0  0  0
   -2.6250  -11.3230   18.5230 N   0  0  0  0  0  0  0  0  0  0  0  0
    0.4640  -10.0670   23.1600 C   0  0  0  0  0  0  0  0  0  0  0  0
    2.1360   -7.2370   12.7830 C   0  0  0  0  0  0  0  0  0  0  0  0
    1.1970   -5.8610   14.5020 C   0  0  0  0  0  0  0  0  0  0  0  0
   -0.2310   -7.4120   15.8040 C   0  0  0  0  0  0  0  0  0  0  0  0
   -5.0110  -11.3300   22.7290 C   0  0  0  0  0  0  0  0  0  0  0  0
    0.3350   -6.1120   15.6820 C   0  0  0  0  0  0  0  0  0  0  0  0
   -0.3150   -9.5470   14.6690 O   0  0  0  0  0  0  0  0  0  0  0  0
   -0.8210  -10.5150   22.6420 C   0  0  0  0  0  0  0  0  0  0  0  0
   -1.3250  -10.1530   15.3000 C   0  0  0  0  0  0  0  0  0  0  0  0
   -2.5220  -11.1060   17.3370 C   0  0  0  0  0  0  0  0  0  0  0  0
   -2.9680  -11.9200   14.8740 N   0  0  0  0  0  0  0  0  0  0  0  0
   -4.2900  -12.6780   16.7280 C   0  0  0  0  0  0  0  0  0  0  0  0
   -1.6530  -10.0960   16.6680 C   0  0  0  0  0  0  0  0  0  0  0  0
  1 24  1  0
  2 18  2  0
  3 31  1  0
  3 29  4  0
  4 30  4  0
  4 28  4  0
  6 31  1  0
  7  8  4  0
  8 14  4  0
  9 27  4  0
  9  7  4  0
 10 17  1  0
 11 17  2  0
 12  9  1  0
 12  1  1  0
 13 24  2  0
 15 21  1  0
 15  2  1  0
 15 22  1  0
 16 15  1  0
 17 12  1  0
 18 23  1  0
 19 10  1  0
 20 14  4  0
 22 25  1  0
 24  5  1  0
 25 23  2  0
 26 18  1  0
 26 28  1  0
 27 20  4  0
 28 32  4  0
 29 19  1  0
 30  3  4  0
 32 29  4  0
M  END
$$$$

     RDKit          3D

 25 26  0  0  0  0  0  0  0  0999 V2000
   -4.3230  -12.9190   16.2040 C   0  0  0  0  0  0  0  0  0  0  0  0
    0.3170   -8.7670   12.2650 C   0  0  0  0  0  0  0  0  0  0  0  0
   -4.8340  -11.4930   21.1720 C   0  0  0  0  0  0  0  0  0  0  0  0
   -3.2670  -11.7790   15.9470 C   0  0  0  0  0  0  0  0  0  0  0  0
   -1.8400   -9.9960   16.6480 C   0  0  0  0  0  0  0  0  0  0  0  0
   -3.6000  -10.9190   20.8060 C   0  0  0  0  0  0  0  0  0  0  0  0
    0.3060   -7.8780   14.5950 C   0  0  0  0  0  0  0  0  0  0  0  0
   -3.2010  -10.4710   19.4470 C   0  0  0  0  0  0  0  0  0  0  0  0
   -0.2070   -8.0040   15.9060 C   0  0  0  0  0  0  0  0  0  0  0  0
   -1.4140  -10.3370   21.6020 O   0  0  0  0  0  0  0  0  0  0  0  0
   -2.7400  -10.7320   21.9300 C   0  0  0  0  0  0  0  0  0  0  0  0
    1.3670   -6.6560   12.7560 C   0  0  0  0  0  0  0  0  0  0  0  0
   -0.6070   -8.9170   14.7710 O   0  0  0  0  0  0  0  0  0  0  0  0
   -0.4980  -10.4700   22.6730 C   0  0  0  0  0  0  0  0  0  0  0  0
   -1.2640   -9.1620   17.6330 O   0  0  0  0  0  0  0  0  0  0  0  0
    0.7030   -7.6120   13.1240 C   0  0  0  0  0  0  0  0  0  0  0  0
   -2.8580  -10.9180   17.0040 C   0  0  0  0  0  0  0  0  0  0  0  0
   -1.4920   -9.8880   15.2800 C   0  0  0  0  0  0  0  0  0  0  0  0
   -1.9150  -10.7440   14.3670 N   0  0  0  0  0  0  0  0  0  0  0  0
    0.0400   -9.0810   22.9860 C   0  0  0  0  0  0  0  0  0  0  0  0
   -3.5040  -11.1570   18.2620 C   0  0  0  0  0  0  0  0  0  0  0  0
   -3.1050  -11.0070   23.2840 C   0  0  0  0  0  0  0  0  0  0  0  0
   -5.2400  -11.8500   22.5270 C   0  0  0  0  0  0  0  0  0  0  0  0
   -2.7660  -11.6940   14.7320 N   0  0  0  0  0  0  0  0  0  0  0  0
   -4.2740  -11.4980   23.5050 C   0  0  0  0  0  0  0  0  0  0  0  0
  2 16  1  0
  3 23  4  0
  4  1  1  0
  4 17  4  0
  5 17  4  0
  5 15  1  0
  6  3  4  0
  6 11  4  0
  7 13  1  0
  7  9  1  0
  8  6  1  0
 10 11  1  0
 10 14  1  0
 11 22  4  0
 12 16  2  0
 13 18  1  0
 14 20  1  0
 16  7  1  0
 17 21  1  0
 18  5  4  0
 19 24  4  0
 19 18  4  0
 21  8  2  3
 22 25  4  0
 23 25  4  0
 24  4  4  0
M  END
$$$$

     RDKit          3D

 16 17  0  0  0  0  0  0  0  0999 V2000
   -3.2300  -11.5870   21.9660 O   0  0  0  0  0  0  0  0  0  0  0  0
   -2.2420  -10.2180   20.3550 C   0  0  0  0  0  0  0  0  0  0  0  0
   -0.5330   -8.6480   21.4010 C   0  0  0  0  0  0  0  0  0  0  0  0
    0.1410   -9.8830   22.0680 C   0  0  0  0  0  0  0  0  0  0  0  0
   -3.2990  -11.3670   16.0000 C   0  0  0  0  0  0  0  0  0  0  0  0
   -0.9970  -10.7590   22.6030 C   0  0  0  0  0  0  0  0  0  0  0  0
   -3.1920  -11.4100   14.6110 C   0  0  0  0  0  0  0  0  0  0  0  0
   -2.1750  -10.8360   13.9430 N   0  0  0  0  0  0  0  0  0  0  0  0
   -2.5280  -10.2900   17.9330 C   0  0  0  0  0  0  0  0  0  0  0  0
   -1.1170  -10.2170   14.6160 C   0  0  0  0  0  0  0  0  0  0  0  0
   -3.4990  -10.4740   19.2180 S   0  0  0  0  0  0  0  0  0  0  0  0
   -1.2160   -9.9230   15.9540 C   0  0  0  0  0  0  0  0  0  0  0  0
   -2.3440  -10.4470   16.6480 C   0  0  0  0  0  0  0  0  0  0  0  0
   -2.1590  -11.0390   21.6410 C   0  0  0  0  0  0  0  0  0  0  0  0
   -4.2500  -12.3170   16.8100 C   0  0  0  0  0  0  0  0  0  0  0  0
   -1.2360   -9.2080   20.1390 C   0  0  0  0  0  0  0  0  0  0  0  0
  2 11  1  0
  2 14  1  0
  3  4  1  0
  4  6  1  0
  5 13  4  0
  5 15  1  0
  7  5  4  0
  8  7  4  0
  8 10  4  0
  9 11  1  0
 10 12  4  0
 12 13  4  0
 13  9  1  0
 14  1  2  0
 14  6  1  0
 16  2  1  0
 16  3  1  0
M  END
$$$$

     RDKit          3D

 31 35  0  0  0  0  0  0  0  0999 V2000
   -4.0140  -11.6720   17.2670 C   0  0  0  0  0  0  0  0  0  0  0  0
   -2.4470  -10.1230   18.1660 N   0  0  0  0  0  0  0  0  0  0  0  0
   -5.6000  -11.4460   23.0200 N   0  0  0  0  0  0  0  0  0  0  0  0
    0.6500   -6.1470   13.2730 C   0  0  0  0  0  0  0  0  0  0  0  0
   -1.7550   -9.6100   21.1130 C   0  0  0  0  0  0  0  0  0  0  0  0
   -3.8170  -12.6160   15.1450 C   0  0  0  0  0  0  0  0  0  0  0  0
    0.1880   -5.7800   14.4820 C   0  0  0  0  0  0  0  0  0  0  0  0
   -0.9260   -9.0720   16.0320 C   0  0  0  0  0  0  0  0  0  0  0  0
    0.5500   -7.5000   12.8650 C   0  0  0  0  0  0  0  0  0  0  0  0
   -1.4240  -10.0940   15.3360 N   0  0  0  0  0  0  0  0  0  0  0  0
   -0.0190   -8.7710   22.7280 C   0  0  0  0  0  0  0  0  0  0  0  0
   -0.9570  -10.5680   14.1880 N   0  0  0  0  0  0  0  0  0  0  0  0
    0.0250  -10.2500   22.8060 C   0  0  0  0  0  0  0  0  0  0  0  0
   -0.2200   -9.7710   13.3310 N   0  0  0  0  0  0  0  0  0  0  0  0
   -4.9690  -11.2100   21.9130 C   0  0  0  0  0  0  0  0  0  0  0  0
   -2.0670   -9.3750   19.4340 C   0  0  0  0  0  0  0  0  0  0  0  0
   -0.1860   -6.7710   15.4180 C   0  0  0  0  0  0  0  0  0  0  0  0
   -4.7850  -12.0530   21.0710 O   0  0  0  0  0  0  0  0  0  0  0  0
   -3.3110   -9.3920   21.7250 C   0  0  0  0  0  0  0  0  0  0  0  0
   -2.2390   -8.0260   19.2540 O   0  0  0  0  0  0  0  0  0  0  0  0
   -3.7390  -12.4770   20.1840 C   0  0  0  0  0  0  0  0  0  0  0  0
   -2.8610  -11.7320   14.7780 N   0  0  0  0  0  0  0  0  0  0  0  0
   -4.4290  -12.5450   16.2770 C   0  0  0  0  0  0  0  0  0  0  0  0
   -0.5930   -8.5660   21.3220 C   0  0  0  0  0  0  0  0  0  0  0  0
   -1.2020  -10.9420   21.6550 C   0  0  0  0  0  0  0  0  0  0  0  0
   -0.3930   -8.0660   15.0390 C   0  0  0  0  0  0  0  0  0  0  0  0
    0.0190   -8.4720   13.7120 C   0  0  0  0  0  0  0  0  0  0  0  0
   -2.9890  -10.7700   17.0150 C   0  0  0  0  0  0  0  0  0  0  0  0
   -4.2160  -10.3720   21.3370 N   0  0  0  0  0  0  0  0  0  0  0  0
   -1.1730  -10.9370   23.1310 C   0  0  0  0  0  0  0  0  0  0  0  0
   -2.4080  -10.8860   15.7030 C   0  0  0  0  0  0  0  0  0  0  0  0
  2 16  1  0
  4  7  2  0
  5 24  1  0
  5 25  1  0
  5 19  1  0
  6 23  4  0
  7 17  1  0
  9  4  1  0
  9 27  1  0
 10 31  1  0
 10  8  1  0
 12 10  1  0
 13 11  1  0
 13 30  1  0
 14 27  2  0
 14 12  1  0
 15  3  2  0
 16  5  1  0
 18 15  1  0
 20 16  2  0
 21 18  1  0
 22  6  4  0
 22 31  4  0
 23  1  4  0
 24 11  1  0
 25 13  1  0
 25 30  1  0
 26 17  2  0
 26  8  1  0
 27 26  1  0
 28  1  4  0
 28  2  1  0
 29 19  1  0
 29 15  1  0
 31 28  4  0
M  END
$$$$

     RDKit          3D

 19 21  0  0  0  0  0  0  0  0999 V2000
   -2.9860   -9.3390   20.3210 C   0  0  0  0  0  0  0  0  0  0  0  0
   -2.8920  -10.9520   17.0540 C   0  0  0  0  0  0  0  0  0  0  0  0
   -2.8000  -11.6490   14.6440 C   0  0  0  0  0  0  0  0  0  0  0  0
   -4.0000  -13.2000   16.2870 C   0  0  0  0  0  0  0  0  0  0  0  0
   -4.1350  -11.7040   19.2130 C   0  0  0  0  0  0  0  0  0  0  0  0
   -3.8610  -10.1110   21.0240 C   0  0  0  0  0  0  0  0  0  0  0  0
   -0.0680   -9.1310   12.1410 N   0  0  0  0  0  0  0  0  0  0  0  0
   -1.7810   -8.7000   18.0830 S   0  0  0  0  0  0  0  0  0  0  0  0
   -2.1240  -10.9010   13.8650 N   0  0  0  0  0  0  0  0  0  0  0  0
   -2.6740   -9.6160   19.0230 C   0  0  0  0  0  0  0  0  0  0  0  0
   -4.3360  -11.3590   20.5100 C   0  0  0  0  0  0  0  0  0  0  0  0
   -3.1740  -11.8860   15.9660 C   0  0  0  0  0  0  0  0  0  0  0  0
   -0.9930   -9.6070   15.6370 C   0  0  0  0  0  0  0  0  0  0  0  0
   -1.1770   -9.8190   14.4280 C   0  0  0  0  0  0  0  0  0  0  0  0
   -5.2910  -12.4570   21.3930 Cl  0  0  0  0  0  0  0  0  0  0  0  0
   -1.8630   -9.8890   16.6950 C   0  0  0  0  0  0  0  0  0  0  0  0
   -3.2810  -10.8370   18.4950 C   0  0  0  0  0  0  0  0  0  0  0  0
   -4.1230   -9.6350   22.2920 O   0  0  0  0  0  0  0  0  0  0  0  0
   -0.3160   -9.1700   13.4850 C   0  0  0  0  0  0  0  0  0  0  0  0
  1  6  4  0
  2 17  4  0
  3 12  2  0
  5 11  4  0
  6 18  1  0
  7 19  1  0
  8 10  4  0
  9 14  2  0
  9  3  1  0
 10  1  4  0
 11  6  4  0
 11 15  1  0
 12  4  1  0
 12  2  1  0
 13 16  1  0
 14 13  1  0
 16  2  4  0
 16  8  4  0
 17 10  4  0
 17  5  4  0
 19 14  1  0
M  END
$$$$

     RDKit          3D

 26 30  0  0  0  0  0  0  0  0999 V2000
   -4.0760  -11.7640   17.2750 C   0  0  0  0  0  0  0  0  0  0  0  0
   -4.9040  -11.7200   18.8620 C   0  0  0  0  0  0  0  0  0  0  0  0
   -1.2360   -9.7660   14.9180 C   0  0  0  0  0  0  0  0  0  0  0  0
   -3.0910   -8.8600   22.7250 P   0  0  0  0  0  0  0  0  0  0  0  0
   -4.4420  -11.9890   16.0970 C   0  0  0  0  0  0  0  0  0  0  0  0
   -0.1390   -9.0630   12.9870 C   0  0  0  0  0  0  0  0  0  0  0  0
   -3.1490  -11.1700   19.2510 N   0  0  0  0  0  0  0  0  0  0  0  0
   -0.6710   -8.5640   15.6190 C   0  0  0  0  0  0  0  0  0  0  0  0
   -1.0120   -9.9960   13.6590 C   0  0  0  0  0  0  0  0  0  0  0  0
   -2.2150   -9.7710   23.5340 O   0  0  0  0  0  0  0  0  0  0  0  0
   -4.3820  -11.4540   19.7730 C   0  0  0  0  0  0  0  0  0  0  0  0
   -2.2060  -11.1620   19.8550 C   0  0  0  0  0  0  0  0  0  0  0  0
   -4.3120   -7.6550   22.5040 O   0  0  0  0  0  0  0  0  0  0  0  0
    0.1280   -7.6810   15.0240 C   0  0  0  0  0  0  0  0  0  0  0  0
   -1.7060  -11.3020   22.1730 C   0  0  0  0  0  0  0  0  0  0  0  0
   -2.8050   -9.3420   21.2780 N   0  0  0  0  0  0  0  0  0  0  0  0
   -1.7590  -11.9480   15.1900 O   0  0  0  0  0  0  0  0  0  0  0  0
   -1.1800   -9.8190   17.6630 O   0  0  0  0  0  0  0  0  0  0  0  0
   -3.1740  -11.1020   15.3610 C   0  0  0  0  0  0  0  0  0  0  0  0
   -1.8470  -10.8610   17.2230 C   0  0  0  0  0  0  0  0  0  0  0  0
   -1.6810   -7.4670   22.5390 C   0  0  0  0  0  0  0  0  0  0  0  0
    0.3190   -8.0150   13.7720 C   0  0  0  0  0  0  0  0  0  0  0  0
   -2.6140  -10.6660   21.3830 C   0  0  0  0  0  0  0  0  0  0  0  0
   -2.3950  -11.4400   23.2600 C   0  0  0  0  0  0  0  0  0  0  0  0
   -2.9720  -11.4050   17.8470 C   0  0  0  0  0  0  0  0  0  0  0  0
   -1.9350  -10.7530   15.6930 C   0  0  0  0  0  0  0  0  0  0  0  0
  1 25  4  0
  1  2  4  0
  2 11  4  0
  3  8  4  0
  4 21  1  0
  4 10  1  0
  5  1  1  0
  6  9  4  0
  6 22  4  0
  7 11  4  0
  7 12  1  0
  9  3  4  0
 13  4  2  0
 14  8  4  0
 15 24  1  0
 16 23  1  0
 16  4  1  0
 17 19  1  0
 17 26  1  0
 19 26  1  0
 19  5  1  0
 20 18  1  0
 20 25  1  0
 22 14  4  0
 23 12  1  0
 23 15  1  0
 24 10  1  0
 25  7  4  0
 26  3  1  0
 26 20  1  0
M  END
$$$$

     RDKit          3D

 22 24  0  0  0  0  0  0  0  0999 V2000
   -2.9070   -9.9500   18.2770 C   0  0  0  0  0  0  0  0  0  0  0  0
    1.3840   -7.7450   12.4160 C   0  0  0  0  0  0  0  0  0  0  0  0
   -3.7960  -10.5240   15.9060 C   0  0  0  0  0  0  0  0  0  0  0  0
   -5.6920  -11.5090   21.2770 O   0  0  0  0  0  0  0  0  0  0  0  0
   -1.8840  -10.8320   14.3710 N   0  0  0  0  0  0  0  0  0  0  0  0
   -0.7350   -9.3870   15.4650 C   0  0  0  0  0  0  0  0  0  0  0  0
   -1.5470   -9.9390   16.3890 N   0  0  0  0  0  0  0  0  0  0  0  0
   -0.3470   -9.5320   13.0270 N   0  0  0  0  0  0  0  0  0  0  0  0
   -3.4110  -11.8770   21.7990 C   0  0  0  0  0  0  0  0  0  0  0  0
   -1.5310   -9.6620   17.8910 C   0  0  0  0  0  0  0  0  0  0  0  0
    1.2140   -9.9610   11.0120 C   0  0  0  0  0  0  0  0  0  0  0  0
   -4.2860  -11.9560   18.1770 C   0  0  0  0  0  0  0  0  0  0  0  0
   -2.3380  -10.9880   15.7640 C   0  0  0  0  0  0  0  0  0  0  0  0
   -2.7850  -10.4460   19.5850 O   0  0  0  0  0  0  0  0  0  0  0  0
   -1.0180   -9.9330   14.2670 C   0  0  0  0  0  0  0  0  0  0  0  0
   -3.4670  -11.0360   20.6470 C   0  0  0  0  0  0  0  0  0  0  0  0
   -3.4750  -12.1940   17.3700 C   0  0  0  0  0  0  0  0  0  0  0  0
   -3.8390  -10.9670   17.3800 C   0  0  0  0  0  0  0  0  0  0  0  0
   -3.7770  -13.3500   16.1610 C   0  0  0  0  0  0  0  0  0  0  0  0
    0.1790   -8.1210   13.1700 C   0  0  0  0  0  0  0  0  0  0  0  0
    1.5750   -8.5070   11.0630 C   0  0  0  0  0  0  0  0  0  0  0  0
   -4.7770  -10.5510   20.8490 C   0  0  0  0  0  0  0  0  0  0  0  0
  1 14  1  0
  2 20  1  0
  5 13  1  0
  7  6  1  0
  7 10  1  0
  8 20  1  0
  8 15  1  0
 10  1  1  0
 11 21  1  0
 13  3  1  0
 13  7  1  0
 14 16  1  0
 15  5  2  0
 15  6  1  0
 16 22  1  0
 16  9  1  0
 17 19  1  0
 17 18  1  0
 17 12  1  0
 18  3  1  0
 18 12  1  0
 18  1  1  0
 21  2  1  0
 22  4  1  0
M  END
$$$$

     RDKit          3D

 21 23  0  0  0  0  0  0  0  0999 V2000
   -2.6880  -10.7660   15.8970 N   0  0  0  0  0  0  0  0  0  0  0  0
   -1.2560   -9.1300   17.0890 C   0  0  0  0  0  0  0  0  0  0  0  0
   -2.2910   -9.6840   19.5150 C   0  0  0  0  0  0  0  0  0  0  0  0
   -3.8720  -12.7190   15.7270 C   0  0  0  0  0  0  0  0  0  0  0  0
   -2.3350  -10.1050   17.2670 C   0  0  0  0  0  0  0  0  0  0  0  0
   -4.3780  -12.5770   17.1590 C   0  0  0  0  0  0  0  0  0  0  0  0
   -2.7940  -10.2290   20.7970 C   0  0  0  0  0  0  0  0  0  0  0  0
   -2.4120  -12.0820   15.5940 C   0  0  0  0  0  0  0  0  0  0  0  0
   -1.0290   -8.2930   18.0840 C   0  0  0  0  0  0  0  0  0  0  0  0
   -3.6250  -11.8760   23.0500 C   0  0  0  0  0  0  0  0  0  0  0  0
   -0.1750   -6.8610   17.9040 Cl  0  0  0  0  0  0  0  0  0  0  0  0
   -4.7040  -11.1390   22.2490 C   0  0  0  0  0  0  0  0  0  0  0  0
   -2.3130  -11.0000   23.1950 C   0  0  0  0  0  0  0  0  0  0  0  0
   -3.8710  -11.7400   18.3420 C   0  0  0  0  0  0  0  0  0  0  0  0
   -1.4180   -8.9500   22.0310 O   0  0  0  0  0  0  0  0  0  0  0  0
   -1.5270  -10.8490   13.7640 N   0  0  0  0  0  0  0  0  0  0  0  0
   -1.5280   -8.6160   19.3600 C   0  0  0  0  0  0  0  0  0  0  0  0
   -2.7950  -10.5170   18.3720 C   0  0  0  0  0  0  0  0  0  0  0  0
   -2.0160  -10.0660   21.9980 C   0  0  0  0  0  0  0  0  0  0  0  0
   -4.2930  -10.7180   20.7880 C   0  0  0  0  0  0  0  0  0  0  0  0
   -2.6240  -10.4250   14.5340 C   0  0  0  0  0  0  0  0  0  0  0  0
  1  5  1  0
  2  5  4  0
  2  9  4  0
  4  6  1  0
  5 18  4  0
  6 14  2  0
  7  3  1  0
  7 19  1  0
  8  4  1  0
  8  1  1  0
  9 17  4  0
 10 13  1  0
 11  9  1  0
 12 10  1  0
 14 18  1  0
 16 21  1  0
 17  3  4  0
 18  3  4  0
 19 15  2  0
 19 13  1  0
 20  7  1  0
 20 12  1  0
 21  1  1  0
M  END
$$$$

     RDKit          3D

 38 43  0  0  0  0  0  0  0  0999 V2000
   -0.4400  -10.2280   21.6730 Cl  0  0  0  0  0  0  0  0  0  0  0  0
   -4.6890  -11.2110   25.2060 C   0  0  0  0  0  0  0  0  0  0  0  0
    0.5950   -9.5420   11.1710 N   0  0  0  0  0  0  0  0  0  0  0  0
   -0.6280   -7.3240   20.5680 O   0  0  0  0  0  0  0  0  0  0  0  0
   -4.4750  -11.4100   21.3730 C   0  0  0  0  0  0  0  0  0  0  0  0
   -0.1570   -9.3140   10.3500 O   0  0  0  0  0  0  0  0  0  0  0  0
   -3.2550  -11.7140   15.8220 C   0  0  0  0  0  0  0  0  0  0  0  0
   -3.6810   -9.8900   22.9480 C   0  0  0  0  0  0  0  0  0  0  0  0
    1.7510   -5.9240   13.5930 C   0  0  0  0  0  0  0  0  0  0  0  0
   -2.5230   -9.3430   18.6060 C   0  0  0  0  0  0  0  0  0  0  0  0
   -1.3680   -9.5050   20.4540 C   0  0  0  0  0  0  0  0  0  0  0  0
    1.6520  -10.0880   10.8480 O   0  0  0  0  0  0  0  0  0  0  0  0
   -3.3590  -13.1280   16.2910 C   0  0  0  0  0  0  0  0  0  0  0  0
   -2.5920  -10.7050   16.7600 C   0  0  0  0  0  0  0  0  0  0  0  0
   -1.5970   -9.8980   16.4160 N   0  0  0  0  0  0  0  0  0  0  0  0
   -5.3290  -12.4460   19.3340 S   0  0  0  0  0  0  0  0  0  0  0  0
    0.3940   -9.0420   12.3420 C   0  0  0  0  0  0  0  0  0  0  0  0
   -4.8480  -11.7360   23.9050 C   0  0  0  0  0  0  0  0  0  0  0  0
   -1.1130   -8.2040   19.9230 C   0  0  0  0  0  0  0  0  0  0  0  0
   -2.6770   -8.4010   24.3380 O   0  0  0  0  0  0  0  0  0  0  0  0
   -5.3680  -12.3400   20.9960 C   0  0  0  0  0  0  0  0  0  0  0  0
   -1.5990   -8.1670   18.5040 C   0  0  0  0  0  0  0  0  0  0  0  0
   -4.5800  -12.3240   15.8950 C   0  0  0  0  0  0  0  0  0  0  0  0
   -4.0810   -9.9490   25.3430 C   0  0  0  0  0  0  0  0  0  0  0  0
   -6.0910  -13.0080   21.7490 O   0  0  0  0  0  0  0  0  0  0  0  0
   -3.0800  -10.5490   18.0590 N   0  0  0  0  0  0  0  0  0  0  0  0
   -3.5750  -10.8470   20.2620 C   0  0  0  0  0  0  0  0  0  0  0  0
    0.9770   -7.8460   12.3710 C   0  0  0  0  0  0  0  0  0  0  0  0
   -4.3690  -11.0140   22.7930 C   0  0  0  0  0  0  0  0  0  0  0  0
   -0.2700   -9.6080   13.3510 C   0  0  0  0  0  0  0  0  0  0  0  0
   -2.5410   -9.8850   19.9620 N   0  0  0  0  0  0  0  0  0  0  0  0
   -0.3850   -8.9090   14.5860 C   0  0  0  0  0  0  0  0  0  0  0  0
   -1.0570   -9.4780   15.5990 C   0  0  0  0  0  0  0  0  0  0  0  0
   -3.4420   -9.3920   24.2400 C   0  0  0  0  0  0  0  0  0  0  0  0
   -4.0400  -11.2920   19.1000 C   0  0  0  0  0  0  0  0  0  0  0  0
   -2.7380  -11.2730   14.5500 O   0  0  0  0  0  0  0  0  0  0  0  0
    0.2870   -7.6340   14.6720 C   0  0  0  0  0  0  0  0  0  0  0  0
    0.9880   -7.1600   13.5510 C   0  0  0  0  0  0  0  0  0  0  0  0
  2 24  2  0
  3 17  1  0
  5 29  1  0
  6  3  1  0
  7 23  1  0
  7 13  1  0
  7 14  1  0
  8 34  1  0
 10 22  1  0
 10 31  1  0
 11  1  1  0
 12  3  2  0
 14 15  1  0
 14 26  1  0
 16 21  1  0
 17 28  4  0
 17 30  4  0
 18  2  1  0
 19 11  1  0
 19  4  2  0
 21  5  1  0
 21 25  2  0
 22 19  1  0
 23 13  1  0
 26 10  1  0
 26 35  1  0
 27  5  1  0
 28 38  4  0
 29  8  2  0
 29 18  1  0
 30 32  4  0
 31 27  1  0
 31 11  1  0
 32 37  4  0
 32 33  1  0
 33 15  1  0
 34 20  2  0
 34 24  1  0
 35 16  1  0
 35 27  2  0
 36  7  1  0
 38  9  1  0
 38 37  4  0
M  CHG  2   3   1   6  -1
M  END
$$$$

     RDKit          3D

 17 18  0  0  0  0  0  0  0  0999 V2000
   -1.6020  -10.6140   14.1110 C   0  0  0  0  0  0  0  0  0  0  0  0
   -3.0670  -11.0380   18.5120 C   0  0  0  0  0  0  0  0  0  0  0  0
   -0.5100   -9.6090   14.2160 C   0  0  0  0  0  0  0  0  0  0  0  0
   -2.2740  -10.1550   16.2990 C   0  0  0  0  0  0  0  0  0  0  0  0
   -2.5920  -10.2820   23.4880 O   0  0  0  0  0  0  0  0  0  0  0  0
   -0.4220   -8.9450   15.3850 C   0  0  0  0  0  0  0  0  0  0  0  0
   -2.4850  -11.0220   21.8390 N   0  0  0  0  0  0  0  0  0  0  0  0
   -2.9510  -10.1430   17.3940 N   0  0  0  0  0  0  0  0  0  0  0  0
   -2.3130  -10.9130   15.2250 C   0  0  0  0  0  0  0  0  0  0  0  0
   -3.4590  -10.3420   19.7790 C   0  0  0  0  0  0  0  0  0  0  0  0
   -4.2160  -12.6770   16.6780 C   0  0  0  0  0  0  0  0  0  0  0  0
   -1.2660   -9.1460   16.4090 C   0  0  0  0  0  0  0  0  0  0  0  0
   -4.4620  -11.3650   22.8540 O   0  0  0  0  0  0  0  0  0  0  0  0
   -4.3990  -12.1430   18.2970 S   0  0  0  0  0  0  0  0  0  0  0  0
   -3.3050  -11.0550   22.7950 C   0  0  0  0  0  0  0  0  0  0  0  0
   -3.4940  -11.3650   20.8040 N   0  0  0  0  0  0  0  0  0  0  0  0
   -3.4810  -12.1190   15.1880 S   0  0  0  0  0  0  0  0  0  0  0  0
  1  3  2  0
  2 10  1  0
  3  6  1  0
  4 12  1  0
  4  8  2  0
  6 12  2  0
  7 15  1  0
  8  2  1  0
  9  1  1  0
  9  4  1  0
 10 16  1  0
 11 14  1  0
 14  2  1  0
 15 13  2  0
 15  5  1  0
 16  7  1  0
 17  9  1  0
 17 11  1  0
M  END
$$$$

     RDKit          3D

 28 31  0  0  0  0  0  0  0  0999 V2000
   -2.3390  -10.2550   16.7830 C   0  0  0  0  0  0  0  0  0  0  0  0
   -4.2500  -11.7510   20.9290 N   0  0  0  0  0  0  0  0  0  0  0  0
   -3.1720  -11.2230   20.3050 C   0  0  0  0  0  0  0  0  0  0  0  0
   -3.7240   -8.8220   24.1490 O   0  0  0  0  0  0  0  0  0  0  0  0
   -0.9660   -9.0520   15.3960 N   0  0  0  0  0  0  0  0  0  0  0  0
   -3.7450  -12.1000   16.6730 C   0  0  0  0  0  0  0  0  0  0  0  0
   -3.0600  -11.0720   15.9870 C   0  0  0  0  0  0  0  0  0  0  0  0
    0.7730   -9.3840   22.5860 F   0  0  0  0  0  0  0  0  0  0  0  0
   -2.6980   -9.3200   23.2850 C   0  0  0  0  0  0  0  0  0  0  0  0
   -0.3910   -9.1790   14.1190 C   0  0  0  0  0  0  0  0  0  0  0  0
    0.5430   -8.4510   12.1450 N   0  0  0  0  0  0  0  0  0  0  0  0
   -0.5080   -9.6110   22.4990 C   0  0  0  0  0  0  0  0  0  0  0  0
    0.4930   -8.2800   13.4560 C   0  0  0  0  0  0  0  0  0  0  0  0
   -0.7100  -10.2360   13.4820 O   0  0  0  0  0  0  0  0  0  0  0  0
    1.3850   -8.9150   10.1860 C   0  0  0  0  0  0  0  0  0  0  0  0
   -1.3990   -9.2560   16.2320 N   0  0  0  0  0  0  0  0  0  0  0  0
   -3.5040   -7.4820   24.4540 C   0  0  0  0  0  0  0  0  0  0  0  0
   -3.0140  -11.1820   18.8830 C   0  0  0  0  0  0  0  0  0  0  0  0
   -1.3820   -9.0650   23.3750 C   0  0  0  0  0  0  0  0  0  0  0  0
    1.7700   -8.1750   11.4470 C   0  0  0  0  0  0  0  0  0  0  0  0
   -3.7840  -12.1540   18.1090 C   0  0  0  0  0  0  0  0  0  0  0  0
   -0.8190   -8.4240   16.5180 O   0  0  0  0  0  0  0  0  0  0  0  0
   -3.1350  -10.3510   22.3660 C   0  0  0  0  0  0  0  0  0  0  0  0
   -0.8900  -10.4430   21.4370 C   0  0  0  0  0  0  0  0  0  0  0  0
   -4.3340  -13.0380   15.7830 F   0  0  0  0  0  0  0  0  0  0  0  0
   -2.3700  -10.1870   18.2030 C   0  0  0  0  0  0  0  0  0  0  0  0
   -2.2620  -10.7250   21.3480 C   0  0  0  0  0  0  0  0  0  0  0  0
   -4.3030  -11.2050   22.2400 C   0  0  0  0  0  0  0  0  0  0  0  0
  1 26  4  0
  2 28  1  0
  3  2  2  0
  3 27  1  0
  4 17  1  0
  5 16  4  0
  5 22  4  0
  6 21  4  0
  7  6  4  0
  7  1  4  0
  9 19  4  0
  9  4  1  0
 10  5  1  0
 11 13  1  0
 12  8  1  0
 12 19  4  0
 13 10  1  0
 14 10  2  0
 15 20  1  0
 16 22  4  0
 16  1  1  0
 18  3  1  0
 20 11  1  0
 21 18  4  0
 23  9  4  0
 24 12  4  0
 25  6  1  0
 26 18  4  0
 27 24  4  0
 27 23  4  0
 28 23  1  0
M  END
$$$$

     RDKit          3D

 17 20  0  0  0  0  0  0  0  0999 V2000
   -3.7230  -12.2530   14.9450 C   0  0  0  0  0  0  0  0  0  0  0  0
   -0.4390   -8.1340   17.8920 C   0  0  0  0  0  0  0  0  0  0  0  0
   -1.0270   -9.5020   17.8540 C   0  0  0  0  0  0  0  0  0  0  0  0
   -0.7520  -10.4560   15.0850 C   0  0  0  0  0  0  0  0  0  0  0  0
   -4.2130  -12.2460   17.2590 C   0  0  0  0  0  0  0  0  0  0  0  0
   -2.4030   -8.8700   19.9290 C   0  0  0  0  0  0  0  0  0  0  0  0
   -2.5470  -11.5830   15.1550 C   0  0  0  0  0  0  0  0  0  0  0  0
   -1.5950  -11.1340   14.3570 N   0  0  0  0  0  0  0  0  0  0  0  0
   -1.2260  -10.1820   16.3780 N   0  0  0  0  0  0  0  0  0  0  0  0
   -2.3850   -9.6710   18.5970 C   0  0  0  0  0  0  0  0  0  0  0  0
   -3.1220  -11.4090   17.4390 C   0  0  0  0  0  0  0  0  0  0  0  0
   -1.4910   -7.8000   20.0690 C   0  0  0  0  0  0  0  0  0  0  0  0
   -2.3010  -11.0880   16.4430 C   0  0  0  0  0  0  0  0  0  0  0  0
   -3.0100  -10.8820   18.6930 O   0  0  0  0  0  0  0  0  0  0  0  0
    0.6190   -7.7690   17.1110 C   0  0  0  0  0  0  0  0  0  0  0  0
   -0.9150   -7.3240   19.0490 C   0  0  0  0  0  0  0  0  0  0  0  0
   -4.5260  -12.6830   16.0010 C   0  0  0  0  0  0  0  0  0  0  0  0
  1  7  1  0
  1 17  1  0
  2 16  1  0
  3  2  1  0
  3 10  1  0
  4  9  1  0
  5 11  1  0
  6 12  1  0
  7 13  1  0
  8  4  1  0
  8  7  2  0
  9 13  1  0
  9  3  1  0
 10 14  1  0
 10  6  1  0
 11 14  1  0
 13 11  2  0
 15  2  2  0
 16 12  1  0
 17  5  2  0
M  END
$$$$

     RDKit          3D

 23 25  0  0  0  0  0  0  0  0999 V2000
   -0.0250   -9.8910   22.1830 C   0  0  0  0  0  0  0  0  0  0  0  0
   -2.7080  -10.5210   17.7950 C   0  0  0  0  0  0  0  0  0  0  0  0
   -2.1010  -10.0210   20.1360 C   0  0  0  0  0  0  0  0  0  0  0  0
   -2.3970  -12.1270   15.7010 C   0  0  0  0  0  0  0  0  0  0  0  0
   -2.1180  -10.7720   15.3660 C   0  0  0  0  0  0  0  0  0  0  0  0
   -3.0770   -9.9740   14.5450 C   0  0  0  0  0  0  0  0  0  0  0  0
   -0.8230   -8.3060   15.4310 C   0  0  0  0  0  0  0  0  0  0  0  0
   -2.6530  -10.9820   22.2670 C   0  0  0  0  0  0  0  0  0  0  0  0
   -4.6020  -12.4910   15.2660 C   0  0  0  0  0  0  0  0  0  0  0  0
   -3.6750  -11.6910   22.8740 O   0  0  0  0  0  0  0  0  0  0  0  0
   -0.6850   -8.7060   12.9550 C   0  0  0  0  0  0  0  0  0  0  0  0
   -0.9830   -9.1040   16.6870 C   0  0  0  0  0  0  0  0  0  0  0  0
   -2.0100   -9.8320   18.8340 C   0  0  0  0  0  0  0  0  0  0  0  0
   -3.2080  -12.9650   15.3380 N   0  0  0  0  0  0  0  0  0  0  0  0
   -0.2100  -10.8980   22.9990 C   0  0  0  0  0  0  0  0  0  0  0  0
   -4.3410  -11.6920   19.0700 C   0  0  0  0  0  0  0  0  0  0  0  0
   -4.0980  -11.4860   20.4350 C   0  0  0  0  0  0  0  0  0  0  0  0
   -3.7990  -11.2690   17.9420 C   0  0  0  0  0  0  0  0  0  0  0  0
   -1.3790  -10.1530   22.7360 C   0  0  0  0  0  0  0  0  0  0  0  0
   -0.6980  -10.6550   14.6430 C   0  0  0  0  0  0  0  0  0  0  0  0
   -1.9400  -10.2400   16.5630 C   0  0  0  0  0  0  0  0  0  0  0  0
   -0.2880   -9.2890   14.2920 C   0  0  0  0  0  0  0  0  0  0  0  0
   -2.9690  -10.8200   20.8400 C   0  0  0  0  0  0  0  0  0  0  0  0
  1 19  1  0
  1 15  1  0
  2 18  2  0
  2 13  1  0
  3 23  2  0
  5  6  1  0
  5  4  1  0
  5 21  1  0
  7 12  1  0
  8 19  1  0
  8 10  1  0
  9 14  1  0
 13  3  1  0
 14  4  1  0
 16 17  2  0
 17 23  1  0
 18 16  1  0
 19 15  1  0
 20  5  1  0
 21 12  1  0
 21  2  1  0
 22 11  1  0
 22 20  1  0
 22  7  1  0
 23  8  1  0
M  END
$$$$

     RDKit          3D

 21 22  0  0  0  0  0  0  0  0999 V2000
   -2.5660  -10.8810   16.5470 C   0  0  0  0  0  0  0  0  0  0  0  0
   -4.1170  -12.8570   16.4530 C   0  0  0  0  0  0  0  0  0  0  0  0
   -0.6270   -8.4760   14.9730 C   0  0  0  0  0  0  0  0  0  0  0  0
   -2.5480  -11.3380   21.1690 O   0  0  0  0  0  0  0  0  0  0  0  0
   -0.1010   -9.0450   11.2110 N   0  0  0  0  0  0  0  0  0  0  0  0
   -0.8880   -9.5860   23.5460 O   0  0  0  0  0  0  0  0  0  0  0  0
   -2.8680  -10.8020   17.9120 C   0  0  0  0  0  0  0  0  0  0  0  0
   -4.6370  -11.1680   19.9350 C   0  0  0  0  0  0  0  0  0  0  0  0
    0.6600   -9.2990   12.3910 C   0  0  0  0  0  0  0  0  0  0  0  0
   -3.2270  -11.8220   15.8360 C   0  0  0  0  0  0  0  0  0  0  0  0
    0.5220   -8.0320   13.6760 S   0  0  0  0  0  0  0  0  0  0  0  0
   -3.8980  -10.9380   21.3700 C   0  0  0  0  0  0  0  0  0  0  0  0
    0.3530   -9.8790   21.6680 O   0  0  0  0  0  0  0  0  0  0  0  0
   -4.3700  -12.6240   17.8000 C   0  0  0  0  0  0  0  0  0  0  0  0
   -0.6280   -9.9670   22.4250 C   0  0  0  0  0  0  0  0  0  0  0  0
   -1.7250   -9.8940   15.6370 C   0  0  0  0  0  0  0  0  0  0  0  0
   -3.9090  -11.5050   18.5230 C   0  0  0  0  0  0  0  0  0  0  0  0
   -2.7310  -11.0180   13.7830 N   0  0  0  0  0  0  0  0  0  0  0  0
   -2.1070  -10.2280   14.3180 C   0  0  0  0  0  0  0  0  0  0  0  0
   -1.5230  -11.1140   21.8540 C   0  0  0  0  0  0  0  0  0  0  0  0
   -3.2820  -12.0090   14.4960 N   0  0  0  0  0  0  0  0  0  0  0  0
  1  7  2  0
  2 14  2  0
  4 12  1  0
  4 20  1  0
  5  9  1  0
  7 17  1  0
  8 12  1  0
  9 11  1  0
 10  2  1  0
 10  1  1  0
 11  3  1  0
 13 15  2  0
 14 17  1  0
 15  6  1  0
 16  3  1  0
 16  1  1  0
 17  8  1  0
 18 19  2  0
 18 21  1  0
 19 16  1  0
 20 15  1  0
 21 10  2  0
M  END
$$$$

     RDKit          3D

 16 19  0  0  0  0  0  0  0  0999 V2000
   -0.3930   -7.0950   15.6950 C   0  0  0  0  0  0  0  0  0  0  0  0
   -0.9780   -8.2060   17.1620 C   0  0  0  0  0  0  0  0  0  0  0  0
   -2.2530  -10.2930   16.7170 C   0  0  0  0  0  0  0  0  0  0  0  0
   -1.7800   -9.4100   17.5820 C   0  0  0  0  0  0  0  0  0  0  0  0
   -2.1290   -9.6370   18.7810 C   0  0  0  0  0  0  0  0  0  0  0  0
   -3.7590  -12.2450   15.9080 C   0  0  0  0  0  0  0  0  0  0  0  0
   -2.5850  -13.3280   17.7030 C   0  0  0  0  0  0  0  0  0  0  0  0
   -2.9360  -10.6120   18.7480 C   0  0  0  0  0  0  0  0  0  0  0  0
   -3.5250  -13.3040   15.1940 O   0  0  0  0  0  0  0  0  0  0  0  0
   -4.4690  -12.0500   18.2570 C   0  0  0  0  0  0  0  0  0  0  0  0
   -1.5950   -6.9760   16.6230 C   0  0  0  0  0  0  0  0  0  0  0  0
   -3.5120  -12.2470   17.3530 C   0  0  0  0  0  0  0  0  0  0  0  0
   -2.9110  -11.0570   17.4740 N   0  0  0  0  0  0  0  0  0  0  0  0
    0.0920   -8.4810   16.1950 C   0  0  0  0  0  0  0  0  0  0  0  0
   -4.3840  -11.2740   15.3680 F   0  0  0  0  0  0  0  0  0  0  0  0
   -4.2030  -11.4930   19.1630 C   0  0  0  0  0  0  0  0  0  0  0  0
  1 14  1  0
  1 11  1  0
  1  2  1  0
  2  4  1  0
  3 13  4  0
  3  4  4  0
  4  5  4  0
  6  9  1  0
  6 12  1  0
  8  5  4  0
  8 16  1  0
 10 16  1  0
 11  2  1  0
 12 13  1  0
 12  7  1  0
 12 10  1  0
 13  8  4  0
 14  2  1  0
 15  6  1  0
M  END
$$$$

     RDKit          3D

 31 34  0  0  0  0  0  0  0  0999 V2000
   -3.9350  -10.9940   22.7660 O   0  0  0  0  0  0  0  0  0  0  0  0
   -2.6540  -10.8260   17.9700 C   0  0  0  0  0  0  0  0  0  0  0  0
   -1.9730  -10.2400   18.8500 O   0  0  0  0  0  0  0  0  0  0  0  0
   -4.3000  -10.1230   21.8110 C   0  0  0  0  0  0  0  0  0  0  0  0
   -0.5890   -8.1170   15.3470 C   0  0  0  0  0  0  0  0  0  0  0  0
   -2.5870  -11.0560   16.6830 N   0  0  0  0  0  0  0  0  0  0  0  0
   -1.0160  -11.0280   23.2620 F   0  0  0  0  0  0  0  0  0  0  0  0
   -1.4960   -8.5290   16.6640 S   0  0  0  0  0  0  0  0  0  0  0  0
   -2.0970   -9.4680   21.7580 C   0  0  0  0  0  0  0  0  0  0  0  0
    1.2830   -9.0100   10.2760 C   0  0  0  0  0  0  0  0  0  0  0  0
   -4.3390  -12.1720   14.9940 N   0  0  0  0  0  0  0  0  0  0  0  0
   -4.5340  -12.2280   17.3600 O   0  0  0  0  0  0  0  0  0  0  0  0
   -1.6020  -10.8430   22.1660 C   0  0  0  0  0  0  0  0  0  0  0  0
   -5.0280  -12.5510   20.9210 O   0  0  0  0  0  0  0  0  0  0  0  0
   -3.2070   -9.1270   22.3630 C   0  0  0  0  0  0  0  0  0  0  0  0
   -4.5970  -10.8470   19.4660 N   0  0  0  0  0  0  0  0  0  0  0  0
   -0.3040  -10.8880   22.1070 F   0  0  0  0  0  0  0  0  0  0  0  0
   -0.8390  -10.4270   14.8920 C   0  0  0  0  0  0  0  0  0  0  0  0
   -0.0220   -9.4350   14.6650 N   0  0  0  0  0  0  0  0  0  0  0  0
   -3.4020  -13.2150   15.3370 N   0  0  0  0  0  0  0  0  0  0  0  0
   -1.7130  -10.0840   16.0530 C   0  0  0  0  0  0  0  0  0  0  0  0
   -3.3620   -9.1010   23.7890 O   0  0  0  0  0  0  0  0  0  0  0  0
    0.6120   -8.2870   12.4700 C   0  0  0  0  0  0  0  0  0  0  0  0
    1.8960   -9.4690    9.4950 O   0  0  0  0  0  0  0  0  0  0  0  0
   -0.2210   -9.0710   13.4370 N   0  0  0  0  0  0  0  0  0  0  0  0
    1.1120   -7.3210   12.9330 O   0  0  0  0  0  0  0  0  0  0  0  0
    0.5240   -8.6350   11.1770 N   0  0  0  0  0  0  0  0  0  0  0  0
   -4.6500  -11.3170   20.7170 C   0  0  0  0  0  0  0  0  0  0  0  0
   -2.8200  -11.5580   22.2250 O   0  0  0  0  0  0  0  0  0  0  0  0
   -3.7030  -12.1790   16.2360 C   0  0  0  0  0  0  0  0  0  0  0  0
   -3.9100  -11.5600   18.4050 C   0  0  0  0  0  0  0  0  0  0  0  0
  2 31  1  0
  2  3  2  0
  4 28  1  0
  4 15  1  0
  4  1  1  0
  5  8  1  0
  6  2  1  0
  9 13  1  0
  9 15  1  0
 10 27  2  0
 11 20  1  0
 11 30  1  0
 12 31  1  0
 13 29  1  0
 13  7  1  0
 15 22  1  0
 16 28  1  0
 17 13  1  0
 19 18  1  0
 19  5  1  0
 20 30  1  0
 21 18  1  0
 21  8  1  0
 21  6  1  0
 23 26  2  0
 23 25  1  0
 24 10  2  0
 25 19  1  0
 27 23  1  0
 28 14  2  0
 29  1  1  0
 30  6  1  0
 30 12  1  0
 31 16  1  0
M  END
$$$$

     RDKit          3D

 38 43  0  0  0  0  0  0  0  0999 V2000
   -0.4050   -7.0770   16.9010 C   0  0  0  0  0  0  0  0  0  0  0  0
   -1.8850  -10.6320   16.2470 C   0  0  0  0  0  0  0  0  0  0  0  0
    0.4860   -7.1070   14.7870 C   0  0  0  0  0  0  0  0  0  0  0  0
   -1.0140   -9.6000   19.1150 O   0  0  0  0  0  0  0  0  0  0  0  0
   -0.8010  -10.3410   22.1310 C   0  0  0  0  0  0  0  0  0  0  0  0
   -1.6520   -9.3530   16.9000 C   0  0  0  0  0  0  0  0  0  0  0  0
    0.0570   -8.2580   22.7890 C   0  0  0  0  0  0  0  0  0  0  0  0
    0.1930   -9.8070   23.1170 C   0  0  0  0  0  0  0  0  0  0  0  0
   -4.6080  -11.9570   24.0670 C   0  0  0  0  0  0  0  0  0  0  0  0
    0.1850   -9.0380   12.7840 C   0  0  0  0  0  0  0  0  0  0  0  0
   -4.5490  -12.6660   15.3620 C   0  0  0  0  0  0  0  0  0  0  0  0
   -3.0590   -8.7600   22.4250 C   0  0  0  0  0  0  0  0  0  0  0  0
    1.0720   -6.9770   13.5180 C   0  0  0  0  0  0  0  0  0  0  0  0
   -1.4090  -11.3350   15.1670 C   0  0  0  0  0  0  0  0  0  0  0  0
   -4.9260  -11.9090   21.4820 C   0  0  0  0  0  0  0  0  0  0  0  0
   -0.3650   -9.2220   14.0570 C   0  0  0  0  0  0  0  0  0  0  0  0
   -1.8230   -9.7150   18.2760 C   0  0  0  0  0  0  0  0  0  0  0  0
   -4.3880  -11.1970   20.4890 C   0  0  0  0  0  0  0  0  0  0  0  0
   -3.3440  -10.5480   20.2200 O   0  0  0  0  0  0  0  0  0  0  0  0
   -4.3860  -11.1390   22.7400 C   0  0  0  0  0  0  0  0  0  0  0  0
   -2.3490  -12.2040   14.7670 N   0  0  0  0  0  0  0  0  0  0  0  0
   -5.7780  -11.1620   20.7350 O   0  0  0  0  0  0  0  0  0  0  0  0
    0.5600   -5.1810   16.0060 O   0  0  0  0  0  0  0  0  0  0  0  0
    0.2500   -6.3240   15.9080 C   0  0  0  0  0  0  0  0  0  0  0  0
   -0.8800   -7.6190   23.8000 C   0  0  0  0  0  0  0  0  0  0  0  0
   -3.5920  -11.3360   17.9540 C   0  0  0  0  0  0  0  0  0  0  0  0
   -3.1630  -10.3130   22.5800 N   0  0  0  0  0  0  0  0  0  0  0  0
   -0.8120   -8.3480   16.3380 C   0  0  0  0  0  0  0  0  0  0  0  0
   -2.3180   -8.1590   21.3660 O   0  0  0  0  0  0  0  0  0  0  0  0
   -2.9720  -11.3310   16.7000 N   0  0  0  0  0  0  0  0  0  0  0  0
   -3.4040  -12.0570   15.6190 C   0  0  0  0  0  0  0  0  0  0  0  0
   -4.3540  -12.2180   18.3180 O   0  0  0  0  0  0  0  0  0  0  0  0
   -1.8840  -11.0740   22.6730 C   0  0  0  0  0  0  0  0  0  0  0  0
   -0.2880   -8.3100   15.0450 C   0  0  0  0  0  0  0  0  0  0  0  0
    2.1210   -5.8190   13.2910 C   0  0  0  0  0  0  0  0  0  0  0  0
   -2.4520   -8.0130   23.6580 C   0  0  0  0  0  0  0  0  0  0  0  0
    0.8680   -7.8780   12.4980 C   0  0  0  0  0  0  0  0  0  0  0  0
   -3.2400  -10.2160   18.7030 C   0  0  0  0  0  0  0  0  0  0  0  0
  2 14  1  0
  2 30  1  0
  2  6  1  0
  3 34  4  0
  3 24  1  0
  5 33  1  0
  5  8  1  0
  6 28  1  0
  6 17  1  0
  7  8  1  0
  7 25  1  0
 10 16  4  0
 11 31  1  0
 12 29  1  0
 12 27  1  0
 12 36  1  0
 13  3  4  0
 15 20  1  0
 16 34  4  0
 17 38  1  0
 17  4  2  0
 18 19  1  0
 18 22  1  0
 18 15  1  0
 20  9  1  0
 21 14  1  0
 21 31  2  0
 22 15  1  0
 24 23  2  0
 24  1  1  0
 26 32  2  0
 26 38  1  0
 27 33  1  0
 27 20  1  0
 28  1  2  0
 30 26  1  0
 31 30  1  0
 34 28  1  0
 35 13  1  0
 36 25  2  3
 37 10  4  0
 37 13  4  0
 38 19  1  0
M  END
$$$$

     RDKit          3D

 18 19  0  0  0  0  0  0  0  0999 V2000
   -1.7540  -10.6800   22.4390 C   0  0  0  0  0  0  0  0  0  0  0  0
   -4.0950  -11.2730   20.2170 C   0  0  0  0  0  0  0  0  0  0  0  0
   -2.1770  -11.3940   14.5340 N   0  0  0  0  0  0  0  0  0  0  0  0
   -3.0530  -10.9740   18.6520 C   0  0  0  0  0  0  0  0  0  0  0  0
   -3.4610  -12.2000   16.5340 C   0  0  0  0  0  0  0  0  0  0  0  0
   -2.6550  -11.3560   15.8370 C   0  0  0  0  0  0  0  0  0  0  0  0
   -4.5130  -12.1870   20.9710 O   0  0  0  0  0  0  0  0  0  0  0  0
   -2.4080  -10.0310   17.9760 C   0  0  0  0  0  0  0  0  0  0  0  0
   -0.2790  -10.3070   22.8600 C   0  0  0  0  0  0  0  0  0  0  0  0
   -1.3770   -9.9210   12.9060 N   0  0  0  0  0  0  0  0  0  0  0  0
   -5.2720  -11.3450   20.4920 O   0  0  0  0  0  0  0  0  0  0  0  0
   -2.2370  -10.2820   16.6670 C   0  0  0  0  0  0  0  0  0  0  0  0
   -1.4510  -10.2160   14.2760 C   0  0  0  0  0  0  0  0  0  0  0  0
   -1.8220  -10.6520   20.8970 C   0  0  0  0  0  0  0  0  0  0  0  0
   -3.7610  -12.0760   17.8460 C   0  0  0  0  0  0  0  0  0  0  0  0
   -0.2030   -9.1920   15.0790 S   0  0  0  0  0  0  0  0  0  0  0  0
   -2.8330  -10.9210   20.0790 C   0  0  0  0  0  0  0  0  0  0  0  0
   -2.5260  -10.7630   23.2250 O   0  0  0  0  0  0  0  0  0  0  0  0
  1  9  1  0
  1 18  2  0
  2 11  1  0
  2  7  1  0
  3  6  1  0
  4 17  1  0
  5 15  4  0
  6  5  4  0
  6 12  4  0
  8  4  4  0
 10 13  1  0
 11  7  1  0
 12  8  4  0
 13  3  1  0
 13 16  2  0
 14  1  1  0
 15  4  4  0
 17  2  1  0
 17 14  2  3
M  END
$$$$

     RDKit          3D

 22 25  0  0  0  0  0  0  0  0999 V2000
   -0.3330   -8.3290   15.8260 C   0  0  0  0  0  0  0  0  0  0  0  0
   -0.1770   -8.6760   14.4410 C   0  0  0  0  0  0  0  0  0  0  0  0
   -4.4470  -11.8730   18.5310 C   0  0  0  0  0  0  0  0  0  0  0  0
   -2.8520  -11.3380   20.7200 C   0  0  0  0  0  0  0  0  0  0  0  0
   -0.0270   -9.7860   22.7610 O   0  0  0  0  0  0  0  0  0  0  0  0
   -1.8300  -10.4080   14.7680 C   0  0  0  0  0  0  0  0  0  0  0  0
   -1.2750   -9.0420   16.6450 C   0  0  0  0  0  0  0  0  0  0  0  0
   -1.3710   -9.6800   22.1570 C   0  0  0  0  0  0  0  0  0  0  0  0
   -3.2180  -11.1810   18.3370 C   0  0  0  0  0  0  0  0  0  0  0  0
   -3.9920  -12.0210   20.8650 C   0  0  0  0  0  0  0  0  0  0  0  0
   -1.9480  -11.1090   21.9320 C   0  0  0  0  0  0  0  0  0  0  0  0
   -2.5800  -11.4230   14.2910 N   0  0  0  0  0  0  0  0  0  0  0  0
   -1.9930  -10.0490   16.1460 C   0  0  0  0  0  0  0  0  0  0  0  0
   -2.9650  -10.9140   16.9860 C   0  0  0  0  0  0  0  0  0  0  0  0
   -4.8200  -12.2820   19.8310 C   0  0  0  0  0  0  0  0  0  0  0  0
   -2.4600  -10.9180   19.4570 C   0  0  0  0  0  0  0  0  0  0  0  0
   -2.7160  -11.0490   23.1870 O   0  0  0  0  0  0  0  0  0  0  0  0
   -3.0120  -12.2300   16.4780 N   0  0  0  0  0  0  0  0  0  0  0  0
   -1.1350   -8.8530   20.9750 O   0  0  0  0  0  0  0  0  0  0  0  0
   -2.1860   -9.6740   23.6880 C   0  0  0  0  0  0  0  0  0  0  0  0
   -0.9370   -9.7580   13.9390 C   0  0  0  0  0  0  0  0  0  0  0  0
   -3.5040  -12.2590   15.1770 C   0  0  0  0  0  0  0  0  0  0  0  0
  1  7  1  0
  2  1  1  0
  3 15  4  0
  4 10  4  0
  6 13  1  0
  8  5  1  0
  8 20  1  0
  9  3  4  0
  9 16  4  0
 11  4  1  0
 11  8  1  0
 11 17  1  0
 12  6  2  0
 12 22  1  0
 13  7  2  0
 13 14  1  0
 14  9  1  0
 15 10  4  0
 16  4  4  0
 17 20  1  0
 18 14  2  0
 19  8  1  0
 21  2  2  0
 21  6  1  0
 22 18  1  0
M  END
$$$$

     RDKit          3D

 21 23  0  0  0  0  0  0  0  0999 V2000
    1.2020   -6.7770   13.6350 O   0  0  0  0  0  0  0  0  0  0  0  0
   -2.8480  -11.3960   14.9020 C   0  0  0  0  0  0  0  0  0  0  0  0
   -2.7530  -10.8700   17.2680 C   0  0  0  0  0  0  0  0  0  0  0  0
    0.1460  -10.3540   22.1610 O   0  0  0  0  0  0  0  0  0  0  0  0
   -2.3100  -10.6910   18.5670 C   0  0  0  0  0  0  0  0  0  0  0  0
    0.0100   -7.5220   15.7100 C   0  0  0  0  0  0  0  0  0  0  0  0
   -4.4740  -12.3800   16.3940 C   0  0  0  0  0  0  0  0  0  0  0  0
   -3.2990  -11.2150   20.8900 C   0  0  0  0  0  0  0  0  0  0  0  0
   -0.8390   -9.7210   14.1730 C   0  0  0  0  0  0  0  0  0  0  0  0
   -4.2870  -11.7540   18.6990 O   0  0  0  0  0  0  0  0  0  0  0  0
   -0.9050   -8.4600   16.3040 C   0  0  0  0  0  0  0  0  0  0  0  0
   -1.8860  -11.1540   21.3330 C   0  0  0  0  0  0  0  0  0  0  0  0
   -2.0480  -10.4300   23.5110 O   0  0  0  0  0  0  0  0  0  0  0  0
   -0.0230   -8.7540   13.6460 C   0  0  0  0  0  0  0  0  0  0  0  0
   -3.9020  -11.6970   17.3740 C   0  0  0  0  0  0  0  0  0  0  0  0
   -1.2890  -10.5450   22.4410 C   0  0  0  0  0  0  0  0  0  0  0  0
   -2.2680  -10.6320   15.9370 C   0  0  0  0  0  0  0  0  0  0  0  0
   -1.3590   -9.5710   15.5480 C   0  0  0  0  0  0  0  0  0  0  0  0
    0.3950   -7.6650   14.3610 C   0  0  0  0  0  0  0  0  0  0  0  0
   -3.2870  -11.2110   19.4270 C   0  0  0  0  0  0  0  0  0  0  0  0
   -3.8970  -12.2640   15.0910 C   0  0  0  0  0  0  0  0  0  0  0  0
  1 19  1  0
  2 21  4  0
  2 17  4  0
  3 15  4  0
  3  5  1  0
  4 16  2  0
  5 20  1  0
  6 11  4  0
  7 15  4  0
  8 12  1  0
  9 18  4  0
 10 20  1  0
 12 16  1  0
 14  9  4  0
 14 19  4  0
 15 10  1  0
 16 13  1  0
 17  3  4  0
 18 17  1  0
 18 11  4  0
 19  6  4  0
 20  8  1  0
 21  7  4  0
M  END
$$$$

     RDKit          3D

 15 14  0  0  0  0  0  0  0  0999 V2000
   -0.3360   -5.9280   16.2590 C   0  0  0  0  0  0  0  0  0  0  0  0
   -2.1970  -10.2340   14.4730 C   0  0  0  0  0  0  0  0  0  0  0  0
   -2.6280  -11.1220   17.6630 C   0  0  0  0  0  0  0  0  0  0  0  0
   -2.6650  -10.3260   16.8380 N   0  0  0  0  0  0  0  0  0  0  0  0
   -0.6370   -8.5040   16.5130 C   0  0  0  0  0  0  0  0  0  0  0  0
   -3.8640  -12.4360   17.2950 C   0  0  0  0  0  0  0  0  0  0  0  0
   -4.3530  -12.2520   18.7710 O   0  0  0  0  0  0  0  0  0  0  0  0
   -1.8660   -9.3810   16.2330 C   0  0  0  0  0  0  0  0  0  0  0  0
   -3.9400  -12.0360   14.8640 C   0  0  0  0  0  0  0  0  0  0  0  0
   -1.2400   -7.1100   15.9520 C   0  0  0  0  0  0  0  0  0  0  0  0
   -0.8480   -7.9900   19.2720 O   0  0  0  0  0  0  0  0  0  0  0  0
   -2.5140  -11.7560   14.6340 C   0  0  0  0  0  0  0  0  0  0  0  0
   -4.0650  -13.1910   15.9080 C   0  0  0  0  0  0  0  0  0  0  0  0
   -2.7150  -10.0100   18.4710 C   0  0  0  0  0  0  0  0  0  0  0  0
   -0.1460   -8.5180   17.9880 C   0  0  0  0  0  0  0  0  0  0  0  0
  2 12  1  0
  3 14  1  0
  4  3  1  0
  5 10  1  0
  5 15  1  0
  6  3  1  0
  6  7  1  0
  8  5  1  0
  8  4  1  0
  9 13  1  0
 10  1  1  0
 12  9  1  0
 13  6  1  0
 15 11  1  0
M  END
$$$$
