
     RDKit          3D

 29 31  0  0  0  0  0  0  0  0999 V2000
   -0.8100   -9.9700   13.0640 C   0  0  0  0  0  0  0  0  0  0  0  0
   -2.0130  -10.2030   17.1150 N   0  0  0  0  0  0  0  0  0  0  0  0
   -1.4770   -9.6950   16.3500 C   0  0  0  0  0  0  0  0  0  0  0  0
   -2.3680  -10.4020   19.4530 C   0  0  0  0  0  0  0  0  0  0  0  0
    0.9240   -5.6850   17.0010 C   0  0  0  0  0  0  0  0  0  0  0  0
   -5.1500  -10.7270   22.3730 O   0  0  0  0  0  0  0  0  0  0  0  0
   -1.2230   -7.1280   17.9310 O   0  0  0  0  0  0  0  0  0  0  0  0
   -1.0800  -10.9150   22.3670 C   0  0  0  0  0  0  0  0  0  0  0  0
   -4.6790  -11.9990   19.2580 C   0  0  0  0  0  0  0  0  0  0  0  0
    0.5850   -7.0700   16.6020 C   0  0  0  0  0  0  0  0  0  0  0  0
   -4.3490  -12.6040   15.5460 C   0  0  0  0  0  0  0  0  0  0  0  0
   -4.3130  -12.0230   18.0590 C   0  0  0  0  0  0  0  0  0  0  0  0
   -0.6100   -7.7200   17.0670 C   0  0  0  0  0  0  0  0  0  0  0  0
   -2.7280  -11.0040   14.8010 C   0  0  0  0  0  0  0  0  0  0  0  0
   -3.9210  -10.8580   24.1130 O   0  0  0  0  0  0  0  0  0  0  0  0
   -4.1330  -11.9310   20.7170 C   0  0  0  0  0  0  0  0  0  0  0  0
   -2.9200  -10.7980   16.0770 C   0  0  0  0  0  0  0  0  0  0  0  0
   -2.1240  -10.3290   18.3450 C   0  0  0  0  0  0  0  0  0  0  0  0
   -2.8660  -11.0920   20.6980 C   0  0  0  0  0  0  0  0  0  0  0  0
   -0.3870   -8.7150   23.5010 C   0  0  0  0  0  0  0  0  0  0  0  0
   -2.4580   -8.7420   22.1080 C   0  0  0  0  0  0  0  0  0  0  0  0
   -2.6880  -10.4170   22.0690 C   0  0  0  0  0  0  0  0  0  0  0  0
   -3.9970  -10.7630   22.8040 C   0  0  0  0  0  0  0  0  0  0  0  0
   -3.5830  -12.1930   14.3860 O   0  0  0  0  0  0  0  0  0  0  0  0
   -3.8100  -11.8160   16.6420 C   0  0  0  0  0  0  0  0  0  0  0  0
   -2.0200  -10.4660   13.7790 C   0  0  0  0  0  0  0  0  0  0  0  0
   -0.9640   -8.6170   16.0010 C   0  0  0  0  0  0  0  0  0  0  0  0
   -0.2070  -10.3050   23.5510 C   0  0  0  0  0  0  0  0  0  0  0  0
   -1.8820   -8.1040   23.4770 C   0  0  0  0  0  0  0  0  0  0  0  0
  1 26  1  0
  2 18  1  0
  3  2  1  0
  6 23  2  0
  8 28  1  0
  9 16  1  0
 10  5  1  0
 10 13  1  0
 11 25  1  0
 12  9  2  0
 13  7  2  0
 14 26  1  0
 14 17  1  0
 17 25  1  0
 17  2  1  0
 18  4  1  0
 19  4  1  0
 19 16  1  0
 19 22  1  0
 20 28  1  0
 21 29  1  0
 22 21  1  0
 22  8  1  0
 22 23  1  0
 23 15  1  0
 24 14  1  0
 24 11  1  0
 25 12  2  0
 27  3  1  0
 27 13  1  0
 29 20  1  0
M  END
$$$$

     RDKit          3D

 22 23  0  0  0  0  0  0  0  0999 V2000
   -1.0000   -9.7380   14.2910 N   0  0  0  0  0  0  0  0  0  0  0  0
   -2.6400  -11.0290   15.2230 C   0  0  0  0  0  0  0  0  0  0  0  0
    0.3830   -9.0640   12.2580 C   0  0  0  0  0  0  0  0  0  0  0  0
   -1.0410  -10.2770   21.6160 C   0  0  0  0  0  0  0  0  0  0  0  0
   -1.3910   -9.7520   16.8450 C   0  0  0  0  0  0  0  0  0  0  0  0
   -4.0850  -10.3880   23.9300 O   0  0  0  0  0  0  0  0  0  0  0  0
   -0.4330   -9.0580   13.2970 C   0  0  0  0  0  0  0  0  0  0  0  0
   -4.0780  -11.2200   22.9820 C   0  0  0  0  0  0  0  0  0  0  0  0
   -3.9810  -10.0610   20.9050 C   0  0  0  0  0  0  0  0  0  0  0  0
   -3.3660  -11.5760   16.2740 C   0  0  0  0  0  0  0  0  0  0  0  0
   -1.2510   -8.2940   18.9300 O   0  0  0  0  0  0  0  0  0  0  0  0
   -4.3490  -12.7550   15.9890 C   0  0  0  0  0  0  0  0  0  0  0  0
   -3.2860  -11.0940   21.7670 N   0  0  0  0  0  0  0  0  0  0  0  0
   -1.8160   -8.9700   21.6030 C   0  0  0  0  0  0  0  0  0  0  0  0
   -2.0140  -11.3900   21.1170 C   0  0  0  0  0  0  0  0  0  0  0  0
   -2.9350   -9.0170   20.5340 C   0  0  0  0  0  0  0  0  0  0  0  0
   -2.3520  -10.1620   17.8490 C   0  0  0  0  0  0  0  0  0  0  0  0
   -3.3190  -11.0480   17.5550 C   0  0  0  0  0  0  0  0  0  0  0  0
   -2.7630  -11.3430   14.0120 O   0  0  0  0  0  0  0  0  0  0  0  0
   -5.1510  -12.3490   22.8910 C   0  0  0  0  0  0  0  0  0  0  0  0
   -2.2780   -9.1610   19.0250 C   0  0  0  0  0  0  0  0  0  0  0  0
   -1.6310  -10.1730   15.5740 C   0  0  0  0  0  0  0  0  0  0  0  0
  1 22  1  0
  2 22  1  0
  2 10  1  0
  3  7  2  0
  5 17  1  0
  7  1  1  0
  8  6  2  0
  9 13  1  0
 10 12  1  0
 10 18  1  0
 13  8  1  0
 14  4  1  0
 15  4  1  0
 15 13  1  0
 16 21  1  0
 16  9  1  0
 16 14  1  0
 17 21  1  0
 18 17  2  0
 19  2  2  0
 20  8  1  0
 21 11  1  0
 22  5  2  0
M  END
$$$$

     RDKit          3D

 26 30  0  0  0  0  0  0  0  0999 V2000
   -1.8180  -11.0880   15.6650 N   0  0  0  0  0  0  0  0  0  0  0  0
   -1.9140  -10.1290   19.5010 S   0  0  0  0  0  0  0  0  0  0  0  0
   -0.5040   -9.0030   15.9590 C   0  0  0  0  0  0  0  0  0  0  0  0
   -1.1070   -9.4350   17.0600 N   0  0  0  0  0  0  0  0  0  0  0  0
    0.0880   -9.1010   12.8920 C   0  0  0  0  0  0  0  0  0  0  0  0
   -4.2760  -10.4260   23.0070 C   0  0  0  0  0  0  0  0  0  0  0  0
   -4.0530  -11.3110   20.7200 C   0  0  0  0  0  0  0  0  0  0  0  0
   -2.7160  -10.9670   18.0510 C   0  0  0  0  0  0  0  0  0  0  0  0
   -4.3960  -11.5710   15.0010 F   0  0  0  0  0  0  0  0  0  0  0  0
   -1.8890  -10.4500   16.8650 C   0  0  0  0  0  0  0  0  0  0  0  0
   -0.5210   -9.1880   22.9580 C   0  0  0  0  0  0  0  0  0  0  0  0
   -3.8900  -11.7760   18.2320 C   0  0  0  0  0  0  0  0  0  0  0  0
   -4.5950  -11.7610   19.4780 C   0  0  0  0  0  0  0  0  0  0  0  0
   -3.8100  -12.6110   15.8690 C   0  0  0  0  0  0  0  0  0  0  0  0
   -2.1490  -10.7840   22.2270 C   0  0  0  0  0  0  0  0  0  0  0  0
   -4.9590  -11.1980   21.9280 C   0  0  0  0  0  0  0  0  0  0  0  0
    0.1250   -9.8600   21.7650 C   0  0  0  0  0  0  0  0  0  0  0  0
   -0.4930   -9.9000   13.7440 N   0  0  0  0  0  0  0  0  0  0  0  0
   -0.6930  -10.7980   22.4860 C   0  0  0  0  0  0  0  0  0  0  0  0
   -2.6710  -10.8430   20.9040 C   0  0  0  0  0  0  0  0  0  0  0  0
   -2.9840  -10.8320   23.2360 N   0  0  0  0  0  0  0  0  0  0  0  0
   -0.8430   -9.8370   14.9720 C   0  0  0  0  0  0  0  0  0  0  0  0
   -4.5080  -12.6660   17.1340 C   0  0  0  0  0  0  0  0  0  0  0  0
    0.7620   -8.1080   13.3160 O   0  0  0  0  0  0  0  0  0  0  0  0
    0.0030   -9.3450   11.6030 N   0  0  0  0  0  0  0  0  0  0  0  0
   -2.3670  -12.5310   15.8050 N   0  0  0  0  0  0  0  0  0  0  0  0
  1 26  1  0
  1 10  1  0
  3  4  1  0
  5 24  2  0
  5 18  1  0
  6 21  1  0
  7 20  1  0
  7 16  1  0
  8 10  1  0
  8 12  1  0
  8  2  1  0
 10  4  2  0
 12 23  1  0
 12 13  1  0
 13  7  2  0
 14  9  1  0
 14 23  1  0
 15 19  1  0
 15 21  2  0
 16  6  1  0
 17 19  1  0
 17 11  1  0
 19 11  1  0
 20  2  1  0
 20 15  1  0
 22 18  1  0
 22  1  1  0
 22  3  1  0
 25  5  1  0
 26 14  1  0
M  END
$$$$

     RDKit          3D

 28 29  0  0  0  0  0  0  0  0999 V2000
   -4.1490  -13.5430   15.5440 N   0  0  0  0  0  0  0  0  0  0  0  0
   -3.9120  -12.2400   15.5450 C   0  0  0  0  0  0  0  0  0  0  0  0
   -4.8260  -11.4460   15.1820 O   0  0  0  0  0  0  0  0  0  0  0  0
    0.1260   -7.8570   15.4320 N   0  0  0  0  0  0  0  0  0  0  0  0
   -2.6290  -10.8100   23.2250 C   0  0  0  0  0  0  0  0  0  0  0  0
    0.5570   -9.2170   22.5260 O   0  0  0  0  0  0  0  0  0  0  0  0
   -2.4250   -9.8350   20.9880 C   0  0  0  0  0  0  0  0  0  0  0  0
   -3.3290  -10.8300   20.4880 C   0  0  0  0  0  0  0  0  0  0  0  0
    0.7890   -5.5170   15.2590 O   0  0  0  0  0  0  0  0  0  0  0  0
   -1.4110  -10.6550   14.0280 C   0  0  0  0  0  0  0  0  0  0  0  0
   -2.6080  -11.6930   15.9960 C   0  0  0  0  0  0  0  0  0  0  0  0
   -3.3990  -11.1790   19.0130 C   0  0  0  0  0  0  0  0  0  0  0  0
   -0.3970   -9.7390   14.1450 C   0  0  0  0  0  0  0  0  0  0  0  0
   -4.2280  -11.9650   18.5930 O   0  0  0  0  0  0  0  0  0  0  0  0
   -1.9300  -13.0630   16.8030 C   0  0  0  0  0  0  0  0  0  0  0  0
   -0.3910  -10.3720   22.3690 C   0  0  0  0  0  0  0  0  0  0  0  0
   -1.8740  -10.0030   22.4590 C   0  0  0  0  0  0  0  0  0  0  0  0
   -4.8170  -12.0680   23.7330 C   0  0  0  0  0  0  0  0  0  0  0  0
   -3.9210  -11.4050   22.7790 C   0  0  0  0  0  0  0  0  0  0  0  0
   -4.2160  -11.4830   21.4040 C   0  0  0  0  0  0  0  0  0  0  0  0
   -2.5930  -10.5170   18.2520 N   0  0  0  0  0  0  0  0  0  0  0  0
   -0.1910  -10.9160   21.0740 O   0  0  0  0  0  0  0  0  0  0  0  0
   -2.1310  -10.7130   16.9490 C   0  0  0  0  0  0  0  0  0  0  0  0
   -2.2120  -11.2500   14.5790 N   0  0  0  0  0  0  0  0  0  0  0  0
   -0.7660   -8.9370   15.5690 C   0  0  0  0  0  0  0  0  0  0  0  0
    0.1540   -6.8470   14.5640 C   0  0  0  0  0  0  0  0  0  0  0  0
   -1.3890   -9.5080   16.4730 C   0  0  0  0  0  0  0  0  0  0  0  0
    0.1440   -6.5170   13.0820 C   0  0  0  0  0  0  0  0  0  0  0  0
  1  2  1  0
  2 11  1  0
  3  2  2  0
  4 25  1  0
  7 17  1  0
  8 12  1  0
  8  7  1  0
  8 20  1  0
 10 13  1  0
 10 24  1  0
 11 15  1  0
 11 23  1  0
 13 25  1  0
 14 12  2  0
 16  6  1  0
 17 16  1  0
 17  5  1  0
 19  5  1  0
 19 18  1  0
 20 19  2  0
 21 12  1  0
 22 16  1  0
 23 21  2  3
 24 11  1  0
 25 27  2  0
 26  9  2  0
 26  4  1  0
 27 23  1  0
 28 26  1  0
M  END
$$$$

     RDKit          3D

 22 23  0  0  0  0  0  0  0  0999 V2000
   -3.6450  -12.0930   15.1910 C   0  0  0  0  0  0  0  0  0  0  0  0
   -4.2150  -13.1570   15.3100 N   0  0  0  0  0  0  0  0  0  0  0  0
   -3.0880  -11.5040   16.9180 C   0  0  0  0  0  0  0  0  0  0  0  0
   -0.0760   -9.9640   22.3450 C   0  0  0  0  0  0  0  0  0  0  0  0
   -1.0760  -11.1400   23.0190 C   0  0  0  0  0  0  0  0  0  0  0  0
   -1.8510   -8.7010   20.5970 C   0  0  0  0  0  0  0  0  0  0  0  0
   -4.0870  -11.2720   19.3430 N   0  0  0  0  0  0  0  0  0  0  0  0
   -3.4650  -10.5960   17.1340 C   0  0  0  0  0  0  0  0  0  0  0  0
   -3.5100  -10.5880   23.5080 N   0  0  0  0  0  0  0  0  0  0  0  0
   -5.0450  -11.2530   21.9980 N   0  0  0  0  0  0  0  0  0  0  0  0
   -3.4930  -11.4200   14.1650 O   0  0  0  0  0  0  0  0  0  0  0  0
   -1.6850   -8.5470   22.3210 C   0  0  0  0  0  0  0  0  0  0  0  0
   -2.6680   -9.5190   19.7270 N   0  0  0  0  0  0  0  0  0  0  0  0
   -3.3960  -10.4160   20.2970 C   0  0  0  0  0  0  0  0  0  0  0  0
   -3.6220  -10.7320   21.5070 C   0  0  0  0  0  0  0  0  0  0  0  0
   -5.3330  -12.4460   21.8280 C   0  0  0  0  0  0  0  0  0  0  0  0
   -4.8480  -11.3110   23.3490 C   0  0  0  0  0  0  0  0  0  0  0  0
   -1.5510  -11.1110   15.9260 O   0  0  0  0  0  0  0  0  0  0  0  0
   -0.2190   -9.4830   22.8300 C   0  0  0  0  0  0  0  0  0  0  0  0
   -4.0270  -10.8540   18.2390 N   0  0  0  0  0  0  0  0  0  0  0  0
   -2.7560  -10.8030   22.4570 C   0  0  0  0  0  0  0  0  0  0  0  0
   -1.8880  -10.4470   16.7240 C   0  0  0  0  0  0  0  0  0  0  0  0
  1  2  1  0
  1  3  1  0
  3 22  1  0
  3  8  1  0
  4 19  1  0
  4  5  1  0
  6 12  1  0
  7 14  1  0
  8 20  1  0
 10 17  1  0
 11  1  2  0
 12 19  1  0
 13 14  2  3
 13  6  1  0
 15 14  1  0
 15 10  1  0
 15 21  1  0
 16 10  1  0
 17  9  1  0
 18 22  1  0
 20  7  1  0
 21  5  1  0
 21  9  2  0
M  END
$$$$

     RDKit          3D

 21 23  0  0  0  0  0  0  0  0999 V2000
   -1.6430   -9.9640   16.9180 N   0  0  0  0  0  0  0  0  0  0  0  0
   -1.7500  -10.7320   22.0870 N   0  0  0  0  0  0  0  0  0  0  0  0
   -3.5970  -11.3620   21.0320 C   0  0  0  0  0  0  0  0  0  0  0  0
   -0.9530  -10.1980   23.0950 C   0  0  0  0  0  0  0  0  0  0  0  0
   -1.7820  -10.0100   18.1610 N   0  0  0  0  0  0  0  0  0  0  0  0
   -4.7490  -12.5340   15.9330 C   0  0  0  0  0  0  0  0  0  0  0  0
   -2.0580  -10.3800   15.9470 N   0  0  0  0  0  0  0  0  0  0  0  0
   -2.9940  -11.0840   22.3630 C   0  0  0  0  0  0  0  0  0  0  0  0
   -3.4140  -11.4980   17.4660 C   0  0  0  0  0  0  0  0  0  0  0  0
   -2.6280  -11.0380   20.1140 C   0  0  0  0  0  0  0  0  0  0  0  0
   -2.6690  -10.9250   18.5820 C   0  0  0  0  0  0  0  0  0  0  0  0
   -1.3890  -10.5310   14.5840 C   0  0  0  0  0  0  0  0  0  0  0  0
   -1.5130  -10.7390   20.8050 N   0  0  0  0  0  0  0  0  0  0  0  0
   -4.4410  -12.4930   17.3550 C   0  0  0  0  0  0  0  0  0  0  0  0
   -3.4930  -11.2110   23.4310 O   0  0  0  0  0  0  0  0  0  0  0  0
   -0.9080   -9.1630   14.1350 C   0  0  0  0  0  0  0  0  0  0  0  0
    0.2590   -9.5020   22.5190 C   0  0  0  0  0  0  0  0  0  0  0  0
   -3.9980  -11.7340   15.2070 N   0  0  0  0  0  0  0  0  0  0  0  0
    0.0570   -9.0300   13.0070 C   0  0  0  0  0  0  0  0  0  0  0  0
   -4.9770  -11.8180   20.8350 C   0  0  0  0  0  0  0  0  0  0  0  0
   -3.1420  -11.1520   16.1540 C   0  0  0  0  0  0  0  0  0  0  0  0
  1  5  1  0
  2  8  1  0
  2  4  1  0
  3 20  1  0
  3  8  1  0
  5 11  2  0
  6 14  2  0
  7 21  1  0
  7  1  1  0
  8 15  2  0
  9 14  1  0
  9 11  1  0
 10 13  2  0
 10  3  1  0
 11 10  1  0
 12  7  1  0
 13  2  1  0
 16 12  1  0
 17  4  1  0
 18  6  1  0
 18 21  2  0
 19 16  1  0
 21  9  1  0
M  END
$$$$

     RDKit          3D

 17 21  0  0  0  0  0  0  0  0999 V2000
   -1.7830  -10.9550   14.3760 N   0  0  0  0  0  0  0  0  0  0  0  0
   -1.5930  -10.4950   21.6600 N   0  0  0  0  0  0  0  0  0  0  0  0
   -2.5270  -10.6360   20.4820 C   0  0  0  0  0  0  0  0  0  0  0  0
   -3.5480  -11.2610   18.6970 N   0  0  0  0  0  0  0  0  0  0  0  0
   -2.9280  -10.8420   16.2340 N   0  0  0  0  0  0  0  0  0  0  0  0
   -4.9800  -12.7120   21.5810 C   0  0  0  0  0  0  0  0  0  0  0  0
   -3.6750  -11.2910   20.1060 N   0  0  0  0  0  0  0  0  0  0  0  0
   -2.6850   -9.8260   16.9830 C   0  0  0  0  0  0  0  0  0  0  0  0
   -1.9210  -10.3640   15.4780 C   0  0  0  0  0  0  0  0  0  0  0  0
   -2.8560  -11.9130   14.3950 N   0  0  0  0  0  0  0  0  0  0  0  0
   -0.7140   -9.5840   21.2990 C   0  0  0  0  0  0  0  0  0  0  0  0
   -1.9640   -9.8880   19.4750 C   0  0  0  0  0  0  0  0  0  0  0  0
   -2.7230  -10.2630   18.3080 C   0  0  0  0  0  0  0  0  0  0  0  0
   -1.3540   -9.3580   16.4040 C   0  0  0  0  0  0  0  0  0  0  0  0
   -3.4830  -11.8490   15.5010 C   0  0  0  0  0  0  0  0  0  0  0  0
   -4.8990  -11.9200   20.4440 C   0  0  0  0  0  0  0  0  0  0  0  0
   -1.0000   -8.9900   19.9600 C   0  0  0  0  0  0  0  0  0  0  0  0
  1 10  1  0
  1  9  1  0
  3  2  2  0
  4  7  1  0
  5  8  1  0
  7 16  1  0
  7  3  1  0
  8 13  1  0
  9  5  1  0
  9 14  1  0
  9  8  1  0
 10 15  2  0
 11  2  1  0
 12 17  1  0
 12  3  1  0
 13  4  2  0
 13 12  1  0
 14  8  1  0
 15  5  1  0
 16  6  1  0
 17 11  1  0
M  END
$$$$

     RDKit          3D

 15 17  0  0  0  0  0  0  0  0999 V2000
   -2.7000  -11.2450   14.9920 C   0  0  0  0  0  0  0  0  0  0  0  0
   -2.0470  -10.0940   17.1820 C   0  0  0  0  0  0  0  0  0  0  0  0
   -1.4370   -8.7920   20.3050 C   0  0  0  0  0  0  0  0  0  0  0  0
   -2.0880   -8.2680   18.5480 C   0  0  0  0  0  0  0  0  0  0  0  0
   -2.1420  -10.2350   19.7240 C   0  0  0  0  0  0  0  0  0  0  0  0
   -3.7810  -11.5140   18.2590 O   0  0  0  0  0  0  0  0  0  0  0  0
   -0.3160   -9.5220   21.3420 C   0  0  0  0  0  0  0  0  0  0  0  0
   -4.3960  -12.5090   15.8000 C   0  0  0  0  0  0  0  0  0  0  0  0
   -1.0550   -9.4940   16.4930 O   0  0  0  0  0  0  0  0  0  0  0  0
   -2.3800   -9.7720   18.2550 N   0  0  0  0  0  0  0  0  0  0  0  0
   -3.9830  -11.7650   16.7970 C   0  0  0  0  0  0  0  0  0  0  0  0
   -3.7410  -12.1830   14.7110 O   0  0  0  0  0  0  0  0  0  0  0  0
   -1.8940  -11.3510   20.7230 C   0  0  0  0  0  0  0  0  0  0  0  0
   -2.8090  -10.9930   16.2990 C   0  0  0  0  0  0  0  0  0  0  0  0
   -0.8860  -10.8000   21.6610 C   0  0  0  0  0  0  0  0  0  0  0  0
  1 14  4  0
  2 10  1  0
  3  4  1  0
  3  7  1  0
  5  3  1  0
  5 13  1  0
  7 15  1  0
  8 11  4  0
  9  2  2  0
 10  4  1  0
 10  5  1  0
 11  6  1  0
 12  1  4  0
 12  8  4  0
 13 15  1  0
 14 11  4  0
 14  2  1  0
M  END
$$$$

     RDKit          3D

 32 37  0  0  0  0  0  0  0  0999 V2000
   -3.8550  -12.3110   17.0570 C   0  0  0  0  0  0  0  0  0  0  0  0
   -1.9940  -10.8700   23.3620 O   0  0  0  0  0  0  0  0  0  0  0  0
   -0.4710   -9.7550   21.9490 F   0  0  0  0  0  0  0  0  0  0  0  0
    1.2030   -5.9100   11.9290 C   0  0  0  0  0  0  0  0  0  0  0  0
   -4.1370  -12.0600   24.0060 C   0  0  0  0  0  0  0  0  0  0  0  0
   -0.7610   -8.6580   15.8360 C   0  0  0  0  0  0  0  0  0  0  0  0
   -4.1880  -12.7480   15.6240 C   0  0  0  0  0  0  0  0  0  0  0  0
   -2.5470  -11.0620   21.0690 C   0  0  0  0  0  0  0  0  0  0  0  0
   -4.9440  -11.2200   21.1300 C   0  0  0  0  0  0  0  0  0  0  0  0
   -0.5020  -12.0280   21.9410 F   0  0  0  0  0  0  0  0  0  0  0  0
   -4.9330  -11.2220   19.6790 C   0  0  0  0  0  0  0  0  0  0  0  0
   -1.9240  -10.5590   15.2070 C   0  0  0  0  0  0  0  0  0  0  0  0
    0.0330   -7.5220   15.3910 C   0  0  0  0  0  0  0  0  0  0  0  0
   -2.2330  -10.4000   16.6080 C   0  0  0  0  0  0  0  0  0  0  0  0
   -3.5400  -10.8760   23.2350 C   0  0  0  0  0  0  0  0  0  0  0  0
   -2.5480  -11.4560   14.3890 O   0  0  0  0  0  0  0  0  0  0  0  0
   -1.4990   -9.3120   17.0390 C   0  0  0  0  0  0  0  0  0  0  0  0
   -3.9200  -11.7520   14.5320 C   0  0  0  0  0  0  0  0  0  0  0  0
   -1.3770  -10.9120   22.0270 C   0  0  0  0  0  0  0  0  0  0  0  0
    1.6680   -5.4690   13.3060 C   0  0  0  0  0  0  0  0  0  0  0  0
   -1.6910   -9.0320   18.4130 C   0  0  0  0  0  0  0  0  0  0  0  0
   -0.8600   -9.0280   19.2870 O   0  0  0  0  0  0  0  0  0  0  0  0
   -3.7240  -11.1140   19.0010 C   0  0  0  0  0  0  0  0  0  0  0  0
   -4.2380  -10.0280   25.3210 O   0  0  0  0  0  0  0  0  0  0  0  0
   -3.5320  -10.9100   17.4420 N   0  0  0  0  0  0  0  0  0  0  0  0
   -0.2270   -9.1080   13.2770 S   0  0  0  0  0  0  0  0  0  0  0  0
   -3.7250  -11.0270   21.8050 C   0  0  0  0  0  0  0  0  0  0  0  0
   -1.0750   -9.5550   14.7030 C   0  0  0  0  0  0  0  0  0  0  0  0
   -3.9660   -9.6390   23.9530 C   0  0  0  0  0  0  0  0  0  0  0  0
   -2.4980  -11.1410   19.6770 C   0  0  0  0  0  0  0  0  0  0  0  0
    1.2930   -6.8640   13.1330 C   0  0  0  0  0  0  0  0  0  0  0  0
    0.3910   -7.6800   14.0220 C   0  0  0  0  0  0  0  0  0  0  0  0
  1 25  1  0
  3 19  1  0
  4 31  1  0
  4 20  1  0
  6 17  1  0
  7  1  2  0
  8 27  4  0
  8 19  1  0
  9 27  4  0
 10 19  1  0
 11  9  4  0
 12 14  2  0
 13  6  4  0
 14 17  1  0
 14 25  1  0
 15  2  1  0
 15 29  1  0
 15  5  1  0
 16 18  1  0
 16 12  1  0
 17 21  1  0
 18  7  1  0
 19  2  1  0
 21 22  2  0
 23 30  4  0
 23 11  4  0
 25 23  1  0
 26 32  4  0
 26 28  4  0
 27 15  1  0
 28 12  1  0
 28  6  4  0
 29 24  1  0
 30  8  4  0
 31 20  1  0
 31 32  1  0
 32 13  4  0
M  END
$$$$

     RDKit          3D

 25 27  0  0  0  0  0  0  0  0999 V2000
   -3.8550  -12.1440   16.2780 C   0  0  0  0  0  0  0  0  0  0  0  0
   -3.9610  -11.4440   13.7420 O   0  0  0  0  0  0  0  0  0  0  0  0
   -2.0240   -9.7240   17.5500 O   0  0  0  0  0  0  0  0  0  0  0  0
   -1.5900   -9.5590   21.1490 C   0  0  0  0  0  0  0  0  0  0  0  0
    0.3170   -9.0360   22.4640 C   0  0  0  0  0  0  0  0  0  0  0  0
   -4.1430  -12.2440   17.6610 C   0  0  0  0  0  0  0  0  0  0  0  0
   -3.0720  -11.3560   19.7830 N   0  0  0  0  0  0  0  0  0  0  0  0
   -0.0920   -7.6750   22.6640 C   0  0  0  0  0  0  0  0  0  0  0  0
   -2.9970  -11.0560   15.7340 C   0  0  0  0  0  0  0  0  0  0  0  0
   -3.2880  -11.4240   18.5160 C   0  0  0  0  0  0  0  0  0  0  0  0
   -0.6480   -7.8540   16.6230 C   0  0  0  0  0  0  0  0  0  0  0  0
   -0.3480   -9.9210   21.6470 C   0  0  0  0  0  0  0  0  0  0  0  0
   -4.6190  -10.1060   21.8660 O   0  0  0  0  0  0  0  0  0  0  0  0
   -0.7150   -9.2050   15.5950 S   0  0  0  0  0  0  0  0  0  0  0  0
   -2.0270  -10.1640   16.4000 C   0  0  0  0  0  0  0  0  0  0  0  0
   -1.9940   -8.2000   21.2240 C   0  0  0  0  0  0  0  0  0  0  0  0
   -1.9550  -10.3790   13.6900 N   0  0  0  0  0  0  0  0  0  0  0  0
   -3.0390  -11.7380   22.6880 N   0  0  0  0  0  0  0  0  0  0  0  0
   -1.6600   -7.2950   17.0430 O   0  0  0  0  0  0  0  0  0  0  0  0
   -1.1360   -7.1970   21.8060 C   0  0  0  0  0  0  0  0  0  0  0  0
   -3.5490  -10.8030   21.8830 C   0  0  0  0  0  0  0  0  0  0  0  0
   -3.1090  -10.9180   14.3800 N   0  0  0  0  0  0  0  0  0  0  0  0
   -2.5380  -10.5810   20.7420 C   0  0  0  0  0  0  0  0  0  0  0  0
    0.6320   -7.3950   16.7230 O   0  0  0  0  0  0  0  0  0  0  0  0
   -2.4210  -10.4900   18.3830 C   0  0  0  0  0  0  0  0  0  0  0  0
  1  6  1  0
  2 22  1  0
  3 25  1  0
  4 16  4  0
  4 12  4  0
  5  8  4  0
  6 10  1  0
  7 23  1  0
  9 22  1  0
  9  1  1  0
  9 15  1  0
 10  7  1  0
 11 24  2  0
 11 19  1  0
 12  5  4  0
 13 21  2  0
 14 11  1  0
 15 14  1  0
 15  3  1  0
 16 20  4  0
 17 22  1  0
 20  8  4  0
 21 18  1  0
 23  4  1  0
 23 21  1  0
 25 10  2  0
 25  7  1  0
M  END
$$$$

     RDKit          3D

 16 15  0  0  0  0  0  0  0  0999 V2000
   -4.7180  -12.2760   20.3860 C   0  0  0  0  0  0  0  0  0  0  0  0
   -1.9480  -11.2920   20.6310 S   0  0  0  0  0  0  0  0  0  0  0  0
   -3.7890  -12.6520   16.4960 C   0  0  0  0  0  0  0  0  0  0  0  0
   -0.7290  -10.7750   22.1030 S   0  0  0  0  0  0  0  0  0  0  0  0
   -2.2920  -11.3090   14.9760 C   0  0  0  0  0  0  0  0  0  0  0  0
   -4.2230  -12.1340   17.7950 C   0  0  0  0  0  0  0  0  0  0  0  0
   -3.8900   -9.8280   21.8270 C   0  0  0  0  0  0  0  0  0  0  0  0
   -3.7090  -11.5170   15.6140 C   0  0  0  0  0  0  0  0  0  0  0  0
   -2.3020   -7.8900   22.5670 O   0  0  0  0  0  0  0  0  0  0  0  0
   -3.6090  -11.1550   19.9900 C   0  0  0  0  0  0  0  0  0  0  0  0
   -2.2810  -10.6940   13.8090 N   0  0  0  0  0  0  0  0  0  0  0  0
   -3.2630  -11.5100   18.5810 N   0  0  0  0  0  0  0  0  0  0  0  0
   -3.3290   -8.3500   21.6770 C   0  0  0  0  0  0  0  0  0  0  0  0
   -4.2940  -10.0410   20.4440 C   0  0  0  0  0  0  0  0  0  0  0  0
   -5.4470  -12.0890   18.0410 O   0  0  0  0  0  0  0  0  0  0  0  0
   -1.2810  -11.7320   15.5370 O   0  0  0  0  0  0  0  0  0  0  0  0
  2  4  1  0
  3  6  1  0
  5 16  2  0
  5  8  1  0
  6 15  2  0
  6 12  1  0
  8  3  1  0
 10  1  1  0
 10 14  1  0
 10  2  1  0
 11  5  1  0
 12 10  1  0
 13  7  1  0
 13  9  1  0
 14  7  1  0
M  END
$$$$

     RDKit          3D

 31 33  0  0  0  0  0  0  0  0999 V2000
    0.6000   -8.7250   22.2200 C   0  0  0  0  0  0  0  0  0  0  0  0
   -0.2830   -9.8180   21.6480 C   0  0  0  0  0  0  0  0  0  0  0  0
   -0.0730   -8.2600   15.9650 C   0  0  0  0  0  0  0  0  0  0  0  0
   -4.3260  -11.8310   23.7460 C   0  0  0  0  0  0  0  0  0  0  0  0
   -1.1830   -7.9980   20.4920 N   0  0  0  0  0  0  0  0  0  0  0  0
   -2.2880   -9.6420   18.5640 N   0  0  0  0  0  0  0  0  0  0  0  0
   -3.2550  -10.4600   21.9900 O   0  0  0  0  0  0  0  0  0  0  0  0
   -1.5890   -8.8460   21.4660 C   0  0  0  0  0  0  0  0  0  0  0  0
   -0.0780   -8.0130   14.4590 N   0  0  0  0  0  0  0  0  0  0  0  0
   -1.4230  -10.6630   15.3340 C   0  0  0  0  0  0  0  0  0  0  0  0
   -2.3810  -10.4010   17.5120 C   0  0  0  0  0  0  0  0  0  0  0  0
   -0.4060  -10.7470   22.7960 C   0  0  0  0  0  0  0  0  0  0  0  0
   -3.1240  -11.3810   17.2260 C   0  0  0  0  0  0  0  0  0  0  0  0
   -2.2700  -11.7030   15.0310 N   0  0  0  0  0  0  0  0  0  0  0  0
    0.5380   -7.3440   16.6480 O   0  0  0  0  0  0  0  0  0  0  0  0
   -1.8520   -8.7830   19.0100 C   0  0  0  0  0  0  0  0  0  0  0  0
   -0.0750   -8.8190   13.3090 C   0  0  0  0  0  0  0  0  0  0  0  0
   -1.4600   -7.8130   19.1870 C   0  0  0  0  0  0  0  0  0  0  0  0
   -0.7520   -9.0270   16.7220 N   0  0  0  0  0  0  0  0  0  0  0  0
   -2.8310   -9.7210   20.9280 C   0  0  0  0  0  0  0  0  0  0  0  0
    0.4530   -6.4030   12.7950 C   0  0  0  0  0  0  0  0  0  0  0  0
   -3.1730  -12.0670   15.9670 C   0  0  0  0  0  0  0  0  0  0  0  0
   -1.4690   -9.9980   16.4690 C   0  0  0  0  0  0  0  0  0  0  0  0
   -2.7070   -9.7880   19.4900 C   0  0  0  0  0  0  0  0  0  0  0  0
   -3.4690  -10.5590   19.8110 C   0  0  0  0  0  0  0  0  0  0  0  0
   -5.6180  -10.8680   21.8660 O   0  0  0  0  0  0  0  0  0  0  0  0
   -4.1890  -13.1000   15.5950 C   0  0  0  0  0  0  0  0  0  0  0  0
   -4.3550  -12.7000   21.4160 F   0  0  0  0  0  0  0  0  0  0  0  0
    0.2700   -7.9970   12.3050 O   0  0  0  0  0  0  0  0  0  0  0  0
   -4.3610  -11.5120   22.1790 S   0  0  0  0  0  0  0  0  0  0  0  0
    0.1330   -6.5830   14.1930 C   0  0  0  0  0  0  0  0  0  0  0  0
  2  1  1  0
  2 12  1  0
  3 15  2  0
  3 19  1  0
  5  8  1  0
  6 16  1  0
  6 24  1  0
  7 30  1  0
  8  2  1  0
  9  3  1  0
 10 23  4  0
 11  6  1  0
 13 11  4  0
 14 10  4  0
 14 22  4  0
 16 18  1  0
 16 24  1  0
 17  9  1  0
 18  5  1  0
 20  7  1  0
 21 31  2  0
 22 13  4  0
 23 19  1  0
 23 11  4  0
 24 25  1  0
 24 20  1  0
 26 30  1  0
 27 22  1  0
 28 30  1  0
 29 21  1  0
 29 17  1  0
 30  4  1  0
 31  9  1  0
M  END
$$$$

     RDKit          3D

 36 39  0  0  0  0  0  0  0  0999 V2000
   -0.2350   -8.0580   16.4790 C   0  0  0  0  0  0  0  0  0  0  0  0
    2.8680   -6.4920   13.0210 C   0  0  0  0  0  0  0  0  0  0  0  0
   -3.6130  -11.2920   23.7330 C   0  0  0  0  0  0  0  0  0  0  0  0
    1.1650   -6.3380   14.7780 C   0  0  0  0  0  0  0  0  0  0  0  0
   -5.1640  -11.3380   19.4210 O   0  0  0  0  0  0  0  0  0  0  0  0
    0.8570   -7.9030   12.7570 C   0  0  0  0  0  0  0  0  0  0  0  0
   -0.2450  -11.2270   14.9540 C   0  0  0  0  0  0  0  0  0  0  0  0
   -2.4320  -10.7750   16.3850 C   0  0  0  0  0  0  0  0  0  0  0  0
   -1.8750  -10.7280   20.0510 O   0  0  0  0  0  0  0  0  0  0  0  0
   -3.6820  -12.3520   17.3730 N   0  0  0  0  0  0  0  0  0  0  0  0
   -0.6610   -6.6380   16.1850 C   0  0  0  0  0  0  0  0  0  0  0  0
   -0.8560  -10.9540   22.9040 C   0  0  0  0  0  0  0  0  0  0  0  0
   -3.7860  -11.3160   14.5910 C   0  0  0  0  0  0  0  0  0  0  0  0
   -2.6230   -8.9990   17.7940 O   0  0  0  0  0  0  0  0  0  0  0  0
   -2.4920  -11.4570   15.0190 C   0  0  0  0  0  0  0  0  0  0  0  0
   -1.2500   -8.7430   15.9930 N   0  0  0  0  0  0  0  0  0  0  0  0
    1.1270   -4.5590   16.3970 C   0  0  0  0  0  0  0  0  0  0  0  0
    2.3900   -5.9940   14.2920 C   0  0  0  0  0  0  0  0  0  0  0  0
   -1.4690  -11.0190   14.2180 O   0  0  0  0  0  0  0  0  0  0  0  0
   -1.7950   -9.3850   16.8310 C   0  0  0  0  0  0  0  0  0  0  0  0
   -4.1510  -11.1040   20.0290 C   0  0  0  0  0  0  0  0  0  0  0  0
   -3.4310  -10.4980   22.5060 C   0  0  0  0  0  0  0  0  0  0  0  0
    0.5890   -5.8570   16.1560 C   0  0  0  0  0  0  0  0  0  0  0  0
   -4.8170  -11.6870   24.0950 C   0  0  0  0  0  0  0  0  0  0  0  0
   -2.5370  -11.7710   17.3090 N   0  0  0  0  0  0  0  0  0  0  0  0
    2.0720   -7.3940   12.1950 C   0  0  0  0  0  0  0  0  0  0  0  0
   -2.8810  -11.8100   18.3240 N   0  0  0  0  0  0  0  0  0  0  0  0
   -2.0690  -10.2760   22.8450 N   0  0  0  0  0  0  0  0  0  0  0  0
   -3.8220  -13.3540   16.5990 C   0  0  0  0  0  0  0  0  0  0  0  0
    0.2030   -9.8540   22.8700 C   0  0  0  0  0  0  0  0  0  0  0  0
   -2.6730   -9.3360   22.3460 C   0  0  0  0  0  0  0  0  0  0  0  0
   -4.2060  -11.1330   21.5180 C   0  0  0  0  0  0  0  0  0  0  0  0
   -2.8530  -10.9840   19.5030 C   0  0  0  0  0  0  0  0  0  0  0  0
   -5.7550  -12.0370   23.0270 C   0  0  0  0  0  0  0  0  0  0  0  0
   -5.4540  -11.7980   21.7700 N   0  0  0  0  0  0  0  0  0  0  0  0
    0.3970   -7.3610   13.9390 C   0  0  0  0  0  0  0  0  0  0  0  0
  2 18  4  0
  3 24  1  0
  4 23  1  0
  5 21  2  0
  6 36  4  0
  8 20  1  0
  8 25  1  0
 10 27  4  0
 11  1  1  0
 15 13  1  0
 15  8  1  0
 16  1  1  0
 16 20  1  0
 18  4  4  0
 19  7  1  0
 19 15  1  0
 20 14  2  0
 21 32  1  0
 22 31  1  0
 22 28  1  0
 22  3  1  0
 23 11  1  0
 23 17  1  0
 25 10  4  0
 25 27  4  0
 26  6  4  0
 26  2  4  0
 27 33  1  0
 28 12  1  0
 29 10  1  0
 30 12  1  0
 31 28  1  0
 32 35  2  0
 32 22  1  0
 33 21  1  0
 33  9  2  0
 34 24  2  0
 35 34  1  0
 36  4  4  0
M  END
$$$$

     RDKit          3D

 18 19  0  0  0  0  0  0  0  0999 V2000
   -1.2910   -9.8070   16.1780 C   0  0  0  0  0  0  0  0  0  0  0  0
   -5.3780  -10.6520   20.3110 F   0  0  0  0  0  0  0  0  0  0  0  0
   -3.9340  -10.7260   22.1950 F   0  0  0  0  0  0  0  0  0  0  0  0
   -0.8080   -9.1340   13.4950 C   0  0  0  0  0  0  0  0  0  0  0  0
   -3.7800  -10.9420   20.7690 S   0  0  0  0  0  0  0  0  0  0  0  0
    0.3150   -8.2520   16.9760 O   0  0  0  0  0  0  0  0  0  0  0  0
   -3.2630   -9.4820   19.9250 O   0  0  0  0  0  0  0  0  0  0  0  0
   -4.4160  -12.3440   20.7110 F   0  0  0  0  0  0  0  0  0  0  0  0
   -2.2580  -10.8450   16.6610 C   0  0  0  0  0  0  0  0  0  0  0  0
   -0.6740   -9.0300   17.2240 C   0  0  0  0  0  0  0  0  0  0  0  0
   -1.3290   -8.9470   18.5230 C   0  0  0  0  0  0  0  0  0  0  0  0
   -1.1890  -10.0140   14.6800 C   0  0  0  0  0  0  0  0  0  0  0  0
   -2.8310  -10.7680   17.9100 C   0  0  0  0  0  0  0  0  0  0  0  0
   -1.8880  -11.2790   14.3830 N   0  0  0  0  0  0  0  0  0  0  0  0
   -2.3090  -11.7230   20.9020 O   0  0  0  0  0  0  0  0  0  0  0  0
    0.1840   -9.6340   12.6270 C   0  0  0  0  0  0  0  0  0  0  0  0
   -2.5460  -11.8160   15.5180 N   0  0  0  0  0  0  0  0  0  0  0  0
   -2.4450   -9.7610   18.7640 C   0  0  0  0  0  0  0  0  0  0  0  0
  1 12  1  0
  1  9  1  0
  1 10  1  0
  2  5  1  0
  4 12  1  0
  5 15  1  0
  5  3  1  0
  6 10  2  0
  7  5  1  0
  8  5  1  0
  9 13  1  0
 10 11  1  0
 11 18  1  0
 13 18  2  0
 14 12  2  0
 14 17  1  0
 16  4  1  0
 17  9  2  0
 18  7  1  0
M  END
$$$$

     RDKit          3D

 26 27  0  0  0  0  0  0  0  0999 V2000
   -1.0390   -9.3890   18.7650 C   0  0  0  0  0  0  0  0  0  0  0  0
   -3.4040  -12.0570   14.8190 N   0  0  0  0  0  0  0  0  0  0  0  0
   -4.4710  -11.8350   23.6250 C   0  0  0  0  0  0  0  0  0  0  0  0
   -1.9050   -9.7880   19.9450 C   0  0  0  0  0  0  0  0  0  0  0  0
   -1.1510   -9.5480   13.9900 C   0  0  0  0  0  0  0  0  0  0  0  0
    0.6200   -9.7280   21.6030 C   0  0  0  0  0  0  0  0  0  0  0  0
   -5.3170  -12.6860   21.4870 C   0  0  0  0  0  0  0  0  0  0  0  0
   -2.9900  -11.1020   17.1220 C   0  0  0  0  0  0  0  0  0  0  0  0
   -0.5720   -8.7160   21.7540 C   0  0  0  0  0  0  0  0  0  0  0  0
   -3.6060  -10.8580   21.4320 C   0  0  0  0  0  0  0  0  0  0  0  0
   -3.6130  -11.9190   16.1200 C   0  0  0  0  0  0  0  0  0  0  0  0
   -4.5580  -12.7360   16.6190 F   0  0  0  0  0  0  0  0  0  0  0  0
   -1.8200   -9.3760   21.3240 N   0  0  0  0  0  0  0  0  0  0  0  0
   -3.1520  -10.8460   19.9220 C   0  0  0  0  0  0  0  0  0  0  0  0
    0.0470   -8.3550   16.2200 N   0  0  0  0  0  0  0  0  0  0  0  0
   -2.7730   -9.8950   22.0650 C   0  0  0  0  0  0  0  0  0  0  0  0
   -4.4380  -11.7360   22.1720 N   0  0  0  0  0  0  0  0  0  0  0  0
   -0.6910   -9.2340   12.9590 N   0  0  0  0  0  0  0  0  0  0  0  0
   -2.5770  -11.2690   14.2060 N   0  0  0  0  0  0  0  0  0  0  0  0
   -1.8520  -10.2960   14.9860 C   0  0  0  0  0  0  0  0  0  0  0  0
   -0.2560   -7.5580   20.8230 C   0  0  0  0  0  0  0  0  0  0  0  0
   -0.4770   -8.2600   23.2150 C   0  0  0  0  0  0  0  0  0  0  0  0
   -2.8660   -9.6040   23.3840 O   0  0  0  0  0  0  0  0  0  0  0  0
   -1.2900   -8.7290   16.3310 O   0  0  0  0  0  0  0  0  0  0  0  0
   -1.7740  -10.1230   16.4110 C   0  0  0  0  0  0  0  0  0  0  0  0
   -3.3300  -11.1350   18.4030 C   0  0  0  0  0  0  0  0  0  0  0  0
  2 11  2  0
  4  1  1  0
  4 13  1  0
  5 20  1  0
  6  9  1  0
  7 17  1  0
  8 26  2  0
  9 22  1  0
 10 16  1  0
 10 17  1  0
 11 12  1  0
 11  8  1  0
 13  9  1  0
 13 16  1  0
 14  4  1  0
 14 10  1  0
 15 24  1  0
 16 23  2  0
 17  3  1  0
 18  5  3  0
 19  2  1  0
 19 20  2  0
 20 25  1  0
 21  9  1  0
 25 24  1  0
 25  8  1  0
 26 14  2  0
M  END
$$$$

     RDKit          3D

 22 23  0  0  0  0  0  0  0  0999 V2000
   -3.8630  -12.1180   18.2320 F   0  0  0  0  0  0  0  0  0  0  0  0
   -1.3310   -9.7830   15.7850 C   0  0  0  0  0  0  0  0  0  0  0  0
   -0.0150   -8.2840   16.9760 O   0  0  0  0  0  0  0  0  0  0  0  0
   -0.3950   -7.8430   22.4680 C   0  0  0  0  0  0  0  0  0  0  0  0
   -0.6720   -9.2900   14.6840 N   0  0  0  0  0  0  0  0  0  0  0  0
   -1.1180   -8.9200   16.9110 C   0  0  0  0  0  0  0  0  0  0  0  0
   -2.7470  -13.3230   16.1720 C   0  0  0  0  0  0  0  0  0  0  0  0
   -0.8590  -10.2440   13.8080 C   0  0  0  0  0  0  0  0  0  0  0  0
   -2.1970   -8.6020   17.9160 C   0  0  0  0  0  0  0  0  0  0  0  0
   -0.9140   -9.0190   21.6640 C   0  0  0  0  0  0  0  0  0  0  0  0
   -1.5470  -11.4000   14.2310 O   0  0  0  0  0  0  0  0  0  0  0  0
   -1.8840  -11.0170   15.5040 C   0  0  0  0  0  0  0  0  0  0  0  0
   -4.1200  -11.4490   16.7560 C   0  0  0  0  0  0  0  0  0  0  0  0
   -0.6010   -9.9870   23.6450 O   0  0  0  0  0  0  0  0  0  0  0  0
   -1.5710   -7.9370   19.1720 C   0  0  0  0  0  0  0  0  0  0  0  0
   -5.0740  -12.3550   16.0150 C   0  0  0  0  0  0  0  0  0  0  0  0
   -2.7170  -12.0080   16.1490 C   0  0  0  0  0  0  0  0  0  0  0  0
   -1.6520   -9.9090   22.6230 C   0  0  0  0  0  0  0  0  0  0  0  0
   -2.5570  -11.3630   20.8850 C   0  0  0  0  0  0  0  0  0  0  0  0
   -1.8390   -8.8770   20.4250 C   0  0  0  0  0  0  0  0  0  0  0  0
   -2.1050  -10.3320   19.8530 C   0  0  0  0  0  0  0  0  0  0  0  0
   -1.6290  -11.4070   22.0980 C   0  0  0  0  0  0  0  0  0  0  0  0
  2  6  1  0
  5  2  2  0
  6  3  2  0
  6  9  1  0
  8 11  1  0
  8  5  1  0
  9 15  1  0
 10  4  1  0
 10 18  1  0
 11 12  1  0
 12  2  1  0
 12 17  1  0
 13 16  1  0
 13  1  1  0
 17  7  2  0
 17 13  1  0
 18 14  1  0
 19 22  1  0
 20 15  1  0
 20 10  1  0
 21 20  1  0
 21 19  1  0
 22 18  1  0
M  END
$$$$

     RDKit          3D

 15 17  0  0  0  0  0  0  0  0999 V2000
   -0.4090   -8.6650   16.8160 C   0  0  0  0  0  0  0  0  0  0  0  0
   -2.0050  -10.1660   15.2100 N   0  0  0  0  0  0  0  0  0  0  0  0
   -2.4330   -9.5920   18.4230 C   0  0  0  0  0  0  0  0  0  0  0  0
   -1.1850  -10.0910   14.0010 C   0  0  0  0  0  0  0  0  0  0  0  0
   -1.7270   -8.1550   18.8120 C   0  0  0  0  0  0  0  0  0  0  0  0
   -3.9760  -11.8540   17.8290 C   0  0  0  0  0  0  0  0  0  0  0  0
   -2.4200  -11.5600   15.7660 C   0  0  0  0  0  0  0  0  0  0  0  0
   -3.2810  -10.1620   19.5300 C   0  0  0  0  0  0  0  0  0  0  0  0
   -3.0190  -11.1950   17.0890 C   0  0  0  0  0  0  0  0  0  0  0  0
   -2.2670  -10.1790   17.5990 C   0  0  0  0  0  0  0  0  0  0  0  0
   -4.1430  -11.2670   19.0600 C   0  0  0  0  0  0  0  0  0  0  0  0
   -4.2470  -12.9580   15.4820 C   0  0  0  0  0  0  0  0  0  0  0  0
   -1.2120   -9.6700   16.4280 C   0  0  0  0  0  0  0  0  0  0  0  0
   -3.5150  -12.0350   14.7590 O   0  0  0  0  0  0  0  0  0  0  0  0
   -0.8480   -7.7390   17.8720 C   0  0  0  0  0  0  0  0  0  0  0  0
  1 15  1  0
  2  7  1  0
  2 13  1  0
  3  5  1  0
  3  8  1  0
  4  2  1  0
  6 11  1  0
  7 14  1  0
  7  9  1  0
  9 10  1  0
  9  6  1  0
 10  3  1  0
 11  8  1  0
 13  1  1  0
 13 10  1  0
 14 12  1  0
 15  5  1  0
M  END
$$$$

     RDKit          3D

 33 39  0  0  0  0  0  0  0  0999 V2000
   -3.5050   -9.8950   22.6190 C   0  0  0  0  0  0  0  0  0  0  0  0
   -1.2020   -8.2370   17.9010 C   0  0  0  0  0  0  0  0  0  0  0  0
   -4.8060  -12.2360   21.0730 C   0  0  0  0  0  0  0  0  0  0  0  0
   -3.9320  -11.9990   17.3080 C   0  0  0  0  0  0  0  0  0  0  0  0
   -1.4580   -8.4870   22.4820 C   0  0  0  0  0  0  0  0  0  0  0  0
   -4.2540  -12.8590   16.1870 C   0  0  0  0  0  0  0  0  0  0  0  0
    0.4020   -8.3740   13.1300 C   0  0  0  0  0  0  0  0  0  0  0  0
   -3.8780  -12.3190   14.9500 C   0  0  0  0  0  0  0  0  0  0  0  0
   -1.7440   -9.1500   21.2420 C   0  0  0  0  0  0  0  0  0  0  0  0
   -4.5150  -11.5420   19.9820 C   0  0  0  0  0  0  0  0  0  0  0  0
   -0.3850   -8.8650   14.3200 C   0  0  0  0  0  0  0  0  0  0  0  0
    0.0440   -8.8840   22.7730 C   0  0  0  0  0  0  0  0  0  0  0  0
   -0.6320   -7.2480   18.2960 O   0  0  0  0  0  0  0  0  0  0  0  0
   -3.0970  -11.1270   14.7210 C   0  0  0  0  0  0  0  0  0  0  0  0
   -1.9190   -9.1790   18.8360 C   0  0  0  0  0  0  0  0  0  0  0  0
    0.1390  -10.2770   22.1780 C   0  0  0  0  0  0  0  0  0  0  0  0
   -2.2790  -10.8210   16.0390 C   0  0  0  0  0  0  0  0  0  0  0  0
   -5.0790  -11.7810   22.2470 C   0  0  0  0  0  0  0  0  0  0  0  0
   -1.2860  -10.6240   21.5840 C   0  0  0  0  0  0  0  0  0  0  0  0
   -2.7430  -10.3590   21.3710 C   0  0  0  0  0  0  0  0  0  0  0  0
   -0.0080   -8.3500   15.7090 C   0  0  0  0  0  0  0  0  0  0  0  0
   -2.9290  -11.1930   17.3760 C   0  0  0  0  0  0  0  0  0  0  0  0
   -0.0790   -8.9920   11.8520 N   0  0  0  0  0  0  0  0  0  0  0  0
   -2.5710  -10.5220   18.7320 C   0  0  0  0  0  0  0  0  0  0  0  0
   -4.4070  -11.0260   24.2890 O   0  0  0  0  0  0  0  0  0  0  0  0
   -2.8120   -7.0550   20.6120 C   0  0  0  0  0  0  0  0  0  0  0  0
   -3.4930  -10.5950   19.9730 C   0  0  0  0  0  0  0  0  0  0  0  0
   -2.2830   -9.2180   23.5760 C   0  0  0  0  0  0  0  0  0  0  0  0
   -2.2590   -8.2860   20.1600 C   0  0  0  0  0  0  0  0  0  0  0  0
   -2.1930   -9.3020   16.0770 C   0  0  0  0  0  0  0  0  0  0  0  0
   -4.3260  -10.9820   23.1700 C   0  0  0  0  0  0  0  0  0  0  0  0
   -1.0610   -8.6390   16.6360 N   0  0  0  0  0  0  0  0  0  0  0  0
   -1.0370  -11.5840   16.2210 C   0  0  0  0  0  0  0  0  0  0  0  0
  1 31  1  0
  1 28  1  0
  2 13  2  0
  2 15  1  0
  3 18  1  0
  4 22  1  0
  5 12  1  0
  5 28  1  0
  6  4  1  0
  7 11  1  0
  8  6  1  0
  9 20  1  0
  9 19  1  0
  9  5  1  0
 10  3  1  0
 11 21  1  0
 14  8  1  0
 14 17  1  0
 15 29  1  0
 16 12  1  0
 17 30  1  0
 17 33  1  0
 17 22  1  0
 18 31  1  0
 19 16  1  0
 20 19  1  0
 20  1  1  0
 21 32  1  0
 22 24  1  0
 23  7  1  0
 24 15  1  0
 24 27  1  0
 27 10  1  0
 27 20  1  0
 29 26  1  0
 29  9  1  0
 30 32  1  0
 31 25  2  0
 32  2  1  0
M  END
$$$$

     RDKit          3D

 28 30  0  0  0  0  0  0  0  0999 V2000
   -0.2810   -9.4710   22.5760 O   0  0  0  0  0  0  0  0  0  0  0  0
   -1.4340  -10.1150   16.9740 C   0  0  0  0  0  0  0  0  0  0  0  0
   -2.2820   -7.8450   17.3480 C   0  0  0  0  0  0  0  0  0  0  0  0
   -4.2760  -11.7560   14.8580 F   0  0  0  0  0  0  0  0  0  0  0  0
   -2.5680  -11.2350   16.6610 C   0  0  0  0  0  0  0  0  0  0  0  0
   -3.4060   -9.9420   18.8330 S   0  0  0  0  0  0  0  0  0  0  0  0
   -0.5290   -8.6400   14.8140 O   0  0  0  0  0  0  0  0  0  0  0  0
   -4.2260  -11.7410   21.0590 C   0  0  0  0  0  0  0  0  0  0  0  0
   -4.6390  -12.1890   17.1940 F   0  0  0  0  0  0  0  0  0  0  0  0
   -2.8750  -10.2200   20.4240 C   0  0  0  0  0  0  0  0  0  0  0  0
   -0.5350   -9.2280   16.1710 C   0  0  0  0  0  0  0  0  0  0  0  0
   -2.2570   -8.1440   23.6100 C   0  0  0  0  0  0  0  0  0  0  0  0
   -2.6680  -10.4770   22.8530 C   0  0  0  0  0  0  0  0  0  0  0  0
   -2.8040   -8.7110   21.0200 C   0  0  0  0  0  0  0  0  0  0  0  0
   -0.4560  -11.5280   23.2100 O   0  0  0  0  0  0  0  0  0  0  0  0
   -3.9480   -8.4880   25.4070 O   0  0  0  0  0  0  0  0  0  0  0  0
   -0.2730  -10.5570   16.0080 C   0  0  0  0  0  0  0  0  0  0  0  0
   -0.4400   -6.6920   18.5150 O   0  0  0  0  0  0  0  0  0  0  0  0
   -3.1990   -7.4950   24.6220 C   0  0  0  0  0  0  0  0  0  0  0  0
   -3.3910  -13.2930   15.6210 F   0  0  0  0  0  0  0  0  0  0  0  0
   -1.0600  -10.3760   22.9220 C   0  0  0  0  0  0  0  0  0  0  0  0
   -3.1040   -9.0230   22.6530 C   0  0  0  0  0  0  0  0  0  0  0  0
   -3.6080  -12.1310   16.1580 C   0  0  0  0  0  0  0  0  0  0  0  0
   -2.9930  -11.1540   21.6010 C   0  0  0  0  0  0  0  0  0  0  0  0
   -2.3270   -9.2680   17.7950 C   0  0  0  0  0  0  0  0  0  0  0  0
   -2.2690  -10.1020   15.7270 O   0  0  0  0  0  0  0  0  0  0  0  0
   -0.8790   -7.1920   17.3190 C   0  0  0  0  0  0  0  0  0  0  0  0
    0.1390   -8.0940   16.9460 C   0  0  0  0  0  0  0  0  0  0  0  0
  1 21  2  0
  2 26  1  0
  2 25  1  0
  3 25  1  0
  4 23  1  0
 10  6  1  0
 10 14  1  0
 10 24  1  0
 11  7  1  0
 11 28  1  0
 11  2  1  0
 12 19  1  0
 13 21  1  0
 14 22  1  0
 17 11  1  0
 17  2  1  0
 19 16  1  0
 20 23  1  0
 21 15  1  0
 22 13  1  0
 22 12  1  0
 23  5  1  0
 23  9  1  0
 24  8  1  0
 24 13  1  0
 25  6  1  0
 26  5  1  0
 27  3  1  0
 27 18  1  0
 28 27  1  0
M  END
$$$$

     RDKit          3D

 26 28  0  0  0  0  0  0  0  0999 V2000
   -2.3600  -10.7150   21.5340 C   0  0  0  0  0  0  0  0  0  0  0  0
   -5.7640  -11.6280   20.7070 O   0  0  0  0  0  0  0  0  0  0  0  0
   -3.2780  -12.0320   15.9010 C   0  0  0  0  0  0  0  0  0  0  0  0
   -0.6720   -5.7870   18.2630 O   0  0  0  0  0  0  0  0  0  0  0  0
   -3.1190  -10.2300   17.9600 C   0  0  0  0  0  0  0  0  0  0  0  0
   -3.7770  -11.4680   18.1210 C   0  0  0  0  0  0  0  0  0  0  0  0
   -4.5260  -11.5740   20.4730 C   0  0  0  0  0  0  0  0  0  0  0  0
   -4.1590  -12.0380   19.2680 N   0  0  0  0  0  0  0  0  0  0  0  0
   -2.1200  -10.2730   22.8490 C   0  0  0  0  0  0  0  0  0  0  0  0
   -4.0430  -12.2430   16.9780 C   0  0  0  0  0  0  0  0  0  0  0  0
   -0.6610   -9.0010   24.1300 O   0  0  0  0  0  0  0  0  0  0  0  0
   -3.6830  -11.0820   21.5600 C   0  0  0  0  0  0  0  0  0  0  0  0
   -3.2620  -10.3070   23.6190 N   0  0  0  0  0  0  0  0  0  0  0  0
   -3.2610  -12.9270   14.8870 O   0  0  0  0  0  0  0  0  0  0  0  0
   -0.8870   -9.4780   13.7630 C   0  0  0  0  0  0  0  0  0  0  0  0
   -0.4530   -6.6650   16.0380 C   0  0  0  0  0  0  0  0  0  0  0  0
   -0.9110   -9.8290   23.1550 C   0  0  0  0  0  0  0  0  0  0  0  0
   -2.2880   -7.3530   17.3520 C   0  0  0  0  0  0  0  0  0  0  0  0
   -4.2470  -10.7770   22.8550 C   0  0  0  0  0  0  0  0  0  0  0  0
   -1.3850   -6.1280   17.1400 C   0  0  0  0  0  0  0  0  0  0  0  0
    0.3530  -10.4960   22.4860 C   0  0  0  0  0  0  0  0  0  0  0  0
   -1.4660  -10.7870   14.5070 S   0  0  0  0  0  0  0  0  0  0  0  0
   -2.4130   -9.9430   16.8360 C   0  0  0  0  0  0  0  0  0  0  0  0
   -2.4340  -10.8760   15.7890 C   0  0  0  0  0  0  0  0  0  0  0  0
   -0.2350   -8.0650   16.4220 C   0  0  0  0  0  0  0  0  0  0  0  0
   -1.6450   -8.5990   16.7730 N   0  0  0  0  0  0  0  0  0  0  0  0
  1 12  1  0
  1  9  1  0
  3 10  4  0
  5  6  4  0
  6  8  1  0
  7  2  2  0
  7 12  1  0
  8  7  1  0
  9 17  1  0
  9 13  2  0
 10  6  4  0
 12 19  2  0
 14  3  1  0
 15 22  2  0
 16 25  1  0
 16 20  1  0
 17 21  1  0
 17 11  1  0
 19 13  1  0
 20 18  1  0
 20  4  1  0
 22 24  1  0
 23  5  4  0
 24  3  4  0
 24 23  4  0
 25 26  1  0
 26 23  1  0
 26 18  1  0
M  END
$$$$

     RDKit          3D

 27 31  0  0  0  0  0  0  0  0999 V2000
   -2.8670  -12.2940   14.9120 N   0  0  0  0  0  0  0  0  0  0  0  0
   -1.8380  -10.5170   20.9050 O   0  0  0  0  0  0  0  0  0  0  0  0
   -0.7370  -10.3810   13.3510 O   0  0  0  0  0  0  0  0  0  0  0  0
   -1.9110   -9.7100   16.9750 C   0  0  0  0  0  0  0  0  0  0  0  0
   -2.8270  -11.0940   17.7370 C   0  0  0  0  0  0  0  0  0  0  0  0
   -0.4140   -6.6650   17.8820 C   0  0  0  0  0  0  0  0  0  0  0  0
   -4.9450  -11.7400   16.1860 C   0  0  0  0  0  0  0  0  0  0  0  0
   -1.5520  -10.3980   19.7440 C   0  0  0  0  0  0  0  0  0  0  0  0
   -0.4670   -6.5830   16.4010 C   0  0  0  0  0  0  0  0  0  0  0  0
   -4.3220  -12.6860   15.1880 C   0  0  0  0  0  0  0  0  0  0  0  0
   -2.7550  -10.7460   21.8250 C   0  0  0  0  0  0  0  0  0  0  0  0
   -2.7130  -11.1890   19.2180 C   0  0  0  0  0  0  0  0  0  0  0  0
   -0.5360   -8.0280   16.1030 C   0  0  0  0  0  0  0  0  0  0  0  0
   -3.8980  -11.8760   19.8660 C   0  0  0  0  0  0  0  0  0  0  0  0
    0.2000   -7.9410   18.2400 C   0  0  0  0  0  0  0  0  0  0  0  0
   -3.9640  -11.9910   17.0960 C   0  0  0  0  0  0  0  0  0  0  0  0
   -3.6950  -10.6690   23.9580 N   0  0  0  0  0  0  0  0  0  0  0  0
   -1.3290  -10.2220   14.7780 C   0  0  0  0  0  0  0  0  0  0  0  0
   -2.2290  -11.4560   15.1550 C   0  0  0  0  0  0  0  0  0  0  0  0
   -1.0790   -9.0790   19.2200 O   0  0  0  0  0  0  0  0  0  0  0  0
   -4.6290  -11.4650   23.5720 C   0  0  0  0  0  0  0  0  0  0  0  0
   -2.5870  -10.4050   23.1910 C   0  0  0  0  0  0  0  0  0  0  0  0
   -1.4270  -10.3960   15.5040 N   0  0  0  0  0  0  0  0  0  0  0  0
   -0.9120   -8.7450   17.6350 C   0  0  0  0  0  0  0  0  0  0  0  0
   -5.7190  -11.6940   24.5070 N   0  0  0  0  0  0  0  0  0  0  0  0
   -3.8470  -11.6590   21.3580 C   0  0  0  0  0  0  0  0  0  0  0  0
   -4.7620  -12.0020   22.3490 C   0  0  0  0  0  0  0  0  0  0  0  0
  1 19  1  0
  1 10  1  0
  2 11  1  0
  3 18  1  0
  4 23  1  0
  4 24  1  0
  4  5  1  0
  5 16  1  0
  5 12  1  0
  6 15  1  0
  7 16  1  0
  8 20  1  0
  8  2  1  0
  9  6  1  0
 10  7  1  0
 11 22  1  0
 12  8  1  0
 12 14  1  0
 13  9  1  0
 13 24  1  0
 14 26  1  0
 18 23  1  0
 19 23  1  0
 21 17  2  0
 21 25  1  0
 22 17  1  0
 24 15  1  0
 24 20  1  0
 26 11  2  0
 26 27  1  0
 27 21  1  0
M  END
$$$$

     RDKit          3D

 25 27  0  0  0  0  0  0  0  0999 V2000
    0.8120   -7.7100   13.0960 C   0  0  0  0  0  0  0  0  0  0  0  0
   -2.9220  -11.0100   20.4870 O   0  0  0  0  0  0  0  0  0  0  0  0
   -2.2750  -10.1370   22.8480 C   0  0  0  0  0  0  0  0  0  0  0  0
   -0.9710   -8.8420   21.4280 F   0  0  0  0  0  0  0  0  0  0  0  0
   -2.7550  -10.6720   16.5220 C   0  0  0  0  0  0  0  0  0  0  0  0
   -4.4220  -12.5520   16.5580 C   0  0  0  0  0  0  0  0  0  0  0  0
   -1.4500  -10.4560   14.2810 C   0  0  0  0  0  0  0  0  0  0  0  0
   -0.8970   -9.8720   22.3540 C   0  0  0  0  0  0  0  0  0  0  0  0
   -4.1040  -12.7280   15.1790 C   0  0  0  0  0  0  0  0  0  0  0  0
   -0.2820  -10.8590   21.7360 F   0  0  0  0  0  0  0  0  0  0  0  0
   -1.0910   -8.8510   16.2430 C   0  0  0  0  0  0  0  0  0  0  0  0
   -0.2100   -9.4940   23.3240 F   0  0  0  0  0  0  0  0  0  0  0  0
    0.0670   -8.5730   13.7670 C   0  0  0  0  0  0  0  0  0  0  0  0
   -2.0130   -9.5440   17.0280 C   0  0  0  0  0  0  0  0  0  0  0  0
    0.9770   -7.3010   11.9950 O   0  0  0  0  0  0  0  0  0  0  0  0
   -2.7210   -9.8080   23.9030 O   0  0  0  0  0  0  0  0  0  0  0  0
   -5.1390  -11.5740   21.0470 N   0  0  0  0  0  0  0  0  0  0  0  0
   -0.7020   -9.2930   14.7970 C   0  0  0  0  0  0  0  0  0  0  0  0
   -2.4520  -11.0890   15.0990 C   0  0  0  0  0  0  0  0  0  0  0  0
   -3.3030  -10.7920   21.8130 C   0  0  0  0  0  0  0  0  0  0  0  0
   -3.7950  -11.4670   17.2230 C   0  0  0  0  0  0  0  0  0  0  0  0
   -4.1540  -11.5410   20.0340 C   0  0  0  0  0  0  0  0  0  0  0  0
   -4.4370  -11.2860   18.5270 C   0  0  0  0  0  0  0  0  0  0  0  0
   -3.1920  -12.0710   14.4900 N   0  0  0  0  0  0  0  0  0  0  0  0
   -4.6080  -10.9500   22.2240 N   0  0  0  0  0  0  0  0  0  0  0  0
  1 13  2  0
  2 20  4  0
  3 16  2  0
  4  8  1  0
  5 14  1  0
  5 21  4  0
  6 21  4  0
  7 18  1  0
  7 19  1  0
  8  3  1  0
  8 12  1  0
  9  6  4  0
 10  8  1  0
 11 14  2  0
 13 18  2  0
 15  1  1  0
 17 25  4  0
 18 11  1  0
 19  5  4  0
 20 25  4  0
 20  3  1  0
 21 23  1  0
 22  2  4  0
 22 17  4  0
 23 22  1  0
 24 19  4  0
 24  9  4  0
M  END
$$$$

     RDKit          3D

 27 29  0  0  0  0  0  0  0  0999 V2000
   -3.8130   -8.7430   21.4160 C   0  0  0  0  0  0  0  0  0  0  0  0
   -0.4270   -8.5630   17.6500 N   0  0  0  0  0  0  0  0  0  0  0  0
   -0.4200   -8.2400   18.8940 C   0  0  0  0  0  0  0  0  0  0  0  0
   -1.8590   -9.5060   16.2540 N   0  0  0  0  0  0  0  0  0  0  0  0
   -1.0230   -9.5230   15.3720 N   0  0  0  0  0  0  0  0  0  0  0  0
   -2.5360   -9.3980   18.2940 C   0  0  0  0  0  0  0  0  0  0  0  0
   -0.9880   -8.5690   20.1360 N   0  0  0  0  0  0  0  0  0  0  0  0
   -2.1570  -11.1580   14.3940 N   0  0  0  0  0  0  0  0  0  0  0  0
   -3.2400  -12.3710   16.2710 C   0  0  0  0  0  0  0  0  0  0  0  0
   -0.4600   -9.2290   12.9760 C   0  0  0  0  0  0  0  0  0  0  0  0
   -4.3590  -13.0400   16.4680 F   0  0  0  0  0  0  0  0  0  0  0  0
   -1.3520   -9.1090   21.1600 C   0  0  0  0  0  0  0  0  0  0  0  0
   -2.3210  -10.4020   22.7810 C   0  0  0  0  0  0  0  0  0  0  0  0
   -1.9670  -12.8220   16.5640 C   0  0  0  0  0  0  0  0  0  0  0  0
   -0.0480   -8.6620   12.2450 N   0  0  0  0  0  0  0  0  0  0  0  0
   -1.5840   -9.1720   17.4380 C   0  0  0  0  0  0  0  0  0  0  0  0
   -0.4250   -9.7010   24.0250 O   0  0  0  0  0  0  0  0  0  0  0  0
   -5.4970  -12.2250   21.5570 O   0  0  0  0  0  0  0  0  0  0  0  0
   -4.8780   -9.8250   21.2620 C   0  0  0  0  0  0  0  0  0  0  0  0
   -2.5060   -8.8120   22.2520 C   0  0  0  0  0  0  0  0  0  0  0  0
   -0.7410  -10.7060   21.5960 C   0  0  0  0  0  0  0  0  0  0  0  0
   -4.4550  -11.2800   21.4840 C   0  0  0  0  0  0  0  0  0  0  0  0
   -3.3090  -11.2570   15.2580 C   0  0  0  0  0  0  0  0  0  0  0  0
   -3.7870  -11.1940   22.9040 C   0  0  0  0  0  0  0  0  0  0  0  0
   -1.0650  -10.7660   23.0150 C   0  0  0  0  0  0  0  0  0  0  0  0
   -1.1710  -10.0390   14.1570 C   0  0  0  0  0  0  0  0  0  0  0  0
   -1.5710   -8.5120   23.4580 C   0  0  0  0  0  0  0  0  0  0  0  0
  2  3  1  0
  3  7  1  0
  4 16  2  3
  5  4  1  0
  8 23  1  0
  9 11  1  0
  9 14  1  0
 12  7  1  0
 12 21  1  0
 12 20  1  0
 13 24  1  0
 13 25  1  0
 15 10  3  0
 16  2  1  0
 16  6  1  0
 19  1  1  0
 19 22  1  0
 20  1  1  0
 20 13  1  0
 20 27  1  0
 22 18  1  0
 22 24  1  0
 23  9  1  0
 25 21  1  0
 25 17  1  0
 26 10  1  0
 26  8  1  0
 26  5  1  0
 27 17  1  0
M  END
$$$$

     RDKit          3D

 33 36  0  0  0  0  0  0  0  0999 V2000
   -4.3250  -12.7800   15.8690 C   0  0  0  0  0  0  0  0  0  0  0  0
   -2.2320  -10.5540   18.6950 O   0  0  0  0  0  0  0  0  0  0  0  0
   -3.7810  -11.8770   16.8280 C   0  0  0  0  0  0  0  0  0  0  0  0
   -1.9000  -10.8310   20.9200 O   0  0  0  0  0  0  0  0  0  0  0  0
    0.1940   -9.5790   20.9560 F   0  0  0  0  0  0  0  0  0  0  0  0
   -2.8870  -11.0330   16.0410 C   0  0  0  0  0  0  0  0  0  0  0  0
    0.0180   -9.6880   23.4000 C   0  0  0  0  0  0  0  0  0  0  0  0
   -2.0840  -10.7820   13.7040 C   0  0  0  0  0  0  0  0  0  0  0  0
   -5.8860  -11.9420   20.5130 O   0  0  0  0  0  0  0  0  0  0  0  0
   -1.9100   -9.3300   18.4030 C   0  0  0  0  0  0  0  0  0  0  0  0
   -1.1390   -6.8310   17.5150 C   0  0  0  0  0  0  0  0  0  0  0  0
   -4.6730  -11.6420   20.1910 C   0  0  0  0  0  0  0  0  0  0  0  0
   -1.0960   -9.6240   21.2340 C   0  0  0  0  0  0  0  0  0  0  0  0
   -0.5240  -10.7910   16.1530 C   0  0  0  0  0  0  0  0  0  0  0  0
   -2.6830  -11.6000   14.5730 N   0  0  0  0  0  0  0  0  0  0  0  0
   -4.8590  -11.8280   22.6640 C   0  0  0  0  0  0  0  0  0  0  0  0
   -1.4120   -9.4020   22.8410 C   0  0  0  0  0  0  0  0  0  0  0  0
   -1.5530   -6.9690   18.8270 C   0  0  0  0  0  0  0  0  0  0  0  0
   -1.2030   -7.9580   16.7120 C   0  0  0  0  0  0  0  0  0  0  0  0
   -1.8740  -10.2880   16.3190 N   0  0  0  0  0  0  0  0  0  0  0  0
   -3.2250  -10.6890   24.0780 N   0  0  0  0  0  0  0  0  0  0  0  0
   -1.7390   -8.2570   19.2700 N   0  0  0  0  0  0  0  0  0  0  0  0
   -1.8680   -8.4180   20.7320 C   0  0  0  0  0  0  0  0  0  0  0  0
   -4.1450  -11.4750   21.5900 C   0  0  0  0  0  0  0  0  0  0  0  0
   -1.7680   -9.3550   13.7250 O   0  0  0  0  0  0  0  0  0  0  0  0
   -0.4600   -8.7950   12.7720 C   0  0  0  0  0  0  0  0  0  0  0  0
   -4.3430  -11.4000   23.9540 C   0  0  0  0  0  0  0  0  0  0  0  0
    0.8520   -8.7010   22.9060 F   0  0  0  0  0  0  0  0  0  0  0  0
   -0.7710  -10.1320   13.8560 C   0  0  0  0  0  0  0  0  0  0  0  0
   -1.8690   -9.0070   17.0680 C   0  0  0  0  0  0  0  0  0  0  0  0
   -1.7350   -6.0040   19.6150 F   0  0  0  0  0  0  0  0  0  0  0  0
   -2.6010  -10.3340   22.9980 C   0  0  0  0  0  0  0  0  0  0  0  0
   -2.9700  -10.9010   21.7820 C   0  0  0  0  0  0  0  0  0  0  0  0
  1  3  1  0
  4 13  1  0
  6 20  1  0
  6  3  1  0
  8 25  1  0
  8 29  1  0
  8 15  1  0
 10  2  2  0
 10 22  1  0
 11 18  2  0
 12  9  1  0
 12 24  1  0
 13  5  1  0
 13 17  1  0
 14 20  1  0
 15  6  1  0
 16 27  1  0
 17 32  1  0
 17  7  1  0
 18 22  1  0
 18 31  1  0
 19 30  1  0
 19 11  1  0
 22 23  1  0
 23 13  1  0
 24 33  1  0
 24 16  2  0
 25 29  1  0
 27 21  1  0
 28  7  1  0
 29 26  1  0
 30 20  1  0
 30 10  1  0
 32 21  2  0
 33  4  1  0
 33 32  1  0
M  END
$$$$

     RDKit          3D

 26 29  0  0  0  0  0  0  0  0999 V2000
   -0.3440   -7.6980   16.7620 C   0  0  0  0  0  0  0  0  0  0  0  0
   -4.9120  -11.9700   19.8240 N   0  0  0  0  0  0  0  0  0  0  0  0
   -4.2780  -13.0260   15.7920 C   0  0  0  0  0  0  0  0  0  0  0  0
   -2.6280  -11.0630   20.6300 S   0  0  0  0  0  0  0  0  0  0  0  0
   -2.9710  -10.1130   18.0380 C   0  0  0  0  0  0  0  0  0  0  0  0
   -2.3290  -10.7810   22.2660 C   0  0  0  0  0  0  0  0  0  0  0  0
   -4.5480  -12.0540   18.5190 C   0  0  0  0  0  0  0  0  0  0  0  0
   -0.9270  -10.2130   22.6010 C   0  0  0  0  0  0  0  0  0  0  0  0
    0.4580   -6.1070   16.8970 Cl  0  0  0  0  0  0  0  0  0  0  0  0
   -1.0340   -9.4650   15.3370 C   0  0  0  0  0  0  0  0  0  0  0  0
   -3.8080  -11.4170   17.6950 C   0  0  0  0  0  0  0  0  0  0  0  0
   -3.5750  -11.9040   16.4000 N   0  0  0  0  0  0  0  0  0  0  0  0
   -2.6320  -11.3320   15.5980 C   0  0  0  0  0  0  0  0  0  0  0  0
   -4.2420  -11.6390   20.9110 C   0  0  0  0  0  0  0  0  0  0  0  0
   -0.8030   -8.7790   22.5220 C   0  0  0  0  0  0  0  0  0  0  0  0
   -0.7550   -8.3540   17.8720 C   0  0  0  0  0  0  0  0  0  0  0  0
   -0.0810  -10.9940   23.5440 C   0  0  0  0  0  0  0  0  0  0  0  0
   -0.5810   -8.4330   15.6740 C   0  0  0  0  0  0  0  0  0  0  0  0
   -1.9040  -10.1420   16.4020 C   0  0  0  0  0  0  0  0  0  0  0  0
   -1.0840   -9.4360   12.7390 N   0  0  0  0  0  0  0  0  0  0  0  0
   -3.4060  -11.1820   22.9560 N   0  0  0  0  0  0  0  0  0  0  0  0
   -4.4160  -11.6540   22.2230 N   0  0  0  0  0  0  0  0  0  0  0  0
   -0.6800  -10.0970   14.0410 C   0  0  0  0  0  0  0  0  0  0  0  0
   -1.5970   -9.4190   17.5530 C   0  0  0  0  0  0  0  0  0  0  0  0
   -0.2120   -9.6610   21.4980 C   0  0  0  0  0  0  0  0  0  0  0  0
   -2.4360  -11.6350   14.4720 O   0  0  0  0  0  0  0  0  0  0  0  0
  1  9  1  0
  1 16  4  0
  2 14  1  0
  3 12  1  0
  4 14  4  0
  4  6  4  0
  6  8  1  0
  6 21  4  0
  7  2  1  0
  8 17  1  0
 10 18  4  0
 10 19  4  0
 11  5  1  0
 11  7  2  3
 12 11  1  0
 13 12  1  0
 13 19  1  0
 14 22  4  0
 15  8  1  0
 18  1  4  0
 19 24  4  0
 20 23  1  0
 22 21  4  0
 23 10  1  0
 24 16  4  0
 24  5  1  0
 25 15  1  0
 25  8  1  0
 26 13  2  0
M  END
$$$$

     RDKit          3D

 22 24  0  0  0  0  0  0  0  0999 V2000
   -2.2600  -11.4150   14.4430 N   0  0  0  0  0  0  0  0  0  0  0  0
   -1.4730  -10.4930   13.9920 C   0  0  0  0  0  0  0  0  0  0  0  0
   -3.9830  -10.7840   20.5550 C   0  0  0  0  0  0  0  0  0  0  0  0
   -0.4360   -9.4530   21.0730 C   0  0  0  0  0  0  0  0  0  0  0  0
   -1.5270   -9.7950   20.3540 C   0  0  0  0  0  0  0  0  0  0  0  0
    0.5230   -7.6900   14.7720 O   0  0  0  0  0  0  0  0  0  0  0  0
   -0.0230   -8.4510   14.1460 N   0  0  0  0  0  0  0  0  0  0  0  0
   -4.2680  -12.4410   17.3430 C   0  0  0  0  0  0  0  0  0  0  0  0
   -3.5450  -11.6290   18.2610 O   0  0  0  0  0  0  0  0  0  0  0  0
   -2.6860  -10.3570   22.4050 C   0  0  0  0  0  0  0  0  0  0  0  0
   -0.3600   -9.7770   22.4500 C   0  0  0  0  0  0  0  0  0  0  0  0
   -0.9730   -9.5150   14.7550 C   0  0  0  0  0  0  0  0  0  0  0  0
   -2.6070  -11.4250   15.7310 C   0  0  0  0  0  0  0  0  0  0  0  0
   -2.6710  -10.3260   20.9580 C   0  0  0  0  0  0  0  0  0  0  0  0
   -4.0210  -10.5310   22.7710 C   0  0  0  0  0  0  0  0  0  0  0  0
   -4.7850  -10.8790   21.6770 N   0  0  0  0  0  0  0  0  0  0  0  0
    0.0890   -8.5350   12.8850 O   0  0  0  0  0  0  0  0  0  0  0  0
   -1.2420   -9.4500   16.0980 C   0  0  0  0  0  0  0  0  0  0  0  0
   -3.7380  -12.5330   15.9380 C   0  0  0  0  0  0  0  0  0  0  0  0
   -1.5020  -10.1830   23.0410 C   0  0  0  0  0  0  0  0  0  0  0  0
   -2.1000  -10.3150   16.6060 C   0  0  0  0  0  0  0  0  0  0  0  0
   -4.3630  -11.0410   19.1850 C   0  0  0  0  0  0  0  0  0  0  0  0
  1 13  4  0
  2  1  4  0
  2 12  4  0
  3 14  1  0
  3 16  2  0
  4 11  4  0
  5 14  4  0
  5  4  4  0
  7 12  1  0
  7  6  1  0
  8  9  1  0
  9 22  1  0
 10 15  1  0
 10 20  4  0
 11 20  4  0
 12 18  4  0
 13 19  1  0
 13 21  4  0
 14 10  4  0
 16 15  1  0
 17  7  2  0
 18 21  4  0
 19  8  1  0
 22  3  1  0
M  CHG  2   6  -1   7   1
M  END
$$$$

     RDKit          3D

 26 27  0  0  0  0  0  0  0  0999 V2000
   -3.2130  -11.5860   17.3750 N   0  0  0  0  0  0  0  0  0  0  0  0
   -3.2300  -11.3520   18.6900 C   0  0  0  0  0  0  0  0  0  0  0  0
   -0.0060  -10.2410   22.2250 C   0  0  0  0  0  0  0  0  0  0  0  0
   -2.2980  -11.2620   14.6700 S   0  0  0  0  0  0  0  0  0  0  0  0
   -2.1390  -10.4280   20.8260 C   0  0  0  0  0  0  0  0  0  0  0  0
   -3.3160  -10.4870   22.9420 N   0  0  0  0  0  0  0  0  0  0  0  0
    0.1760   -7.5800   14.0120 O   0  0  0  0  0  0  0  0  0  0  0  0
   -5.1390  -12.2530   21.6210 O   0  0  0  0  0  0  0  0  0  0  0  0
    0.6980   -8.1860   11.9640 O   0  0  0  0  0  0  0  0  0  0  0  0
    0.0560   -8.3520   13.0960 C   0  0  0  0  0  0  0  0  0  0  0  0
   -1.0100   -9.5500   21.3640 C   0  0  0  0  0  0  0  0  0  0  0  0
   -2.3910  -11.0950   16.4100 C   0  0  0  0  0  0  0  0  0  0  0  0
   -0.6770   -9.5660   13.2390 N   0  0  0  0  0  0  0  0  0  0  0  0
   -4.0650  -12.6710   16.8800 C   0  0  0  0  0  0  0  0  0  0  0  0
   -4.3580  -11.6080   20.9130 C   0  0  0  0  0  0  0  0  0  0  0  0
   -2.6160   -9.4430   23.4060 O   0  0  0  0  0  0  0  0  0  0  0  0
   -0.6690   -9.5950   15.6930 C   0  0  0  0  0  0  0  0  0  0  0  0
   -2.2020  -10.6480   19.3980 C   0  0  0  0  0  0  0  0  0  0  0  0
   -1.1190  -10.0600   14.4630 C   0  0  0  0  0  0  0  0  0  0  0  0
   -4.2910  -11.0050   23.9480 C   0  0  0  0  0  0  0  0  0  0  0  0
   -3.2810  -10.7590   21.6190 C   0  0  0  0  0  0  0  0  0  0  0  0
   -4.6030  -12.5180   15.5110 C   0  0  0  0  0  0  0  0  0  0  0  0
    0.9320   -9.1980   10.9280 C   0  0  0  0  0  0  0  0  0  0  0  0
   -4.3220  -11.7790   19.4960 C   0  0  0  0  0  0  0  0  0  0  0  0
   -0.0230   -9.5190   23.4700 O   0  0  0  0  0  0  0  0  0  0  0  0
   -1.4800  -10.0490   16.7910 C   0  0  0  0  0  0  0  0  0  0  0  0
  1  2  1  0
  2 18  1  0
  2 24  2  0
  3 25  1  0
  4 12  1  0
  5 11  1  0
  5 21  2  0
  6 16  1  0
  6 20  1  0
  9 10  1  0
 10 13  1  0
 10  7  2  0
 11  3  1  0
 12 26  1  0
 12  1  1  0
 13 19  2  3
 14  1  1  0
 15 21  1  0
 15  8  2  0
 17 26  1  0
 18  5  1  0
 19  4  1  0
 19 17  1  0
 21  6  1  0
 22 14  1  0
 23  9  1  0
 24 15  1  0
M  END
$$$$

     RDKit          3D

 22 21  0  0  0  0  0  0  0  0999 V2000
   -2.5800   -8.8880   23.1890 O   0  0  0  0  0  0  0  0  0  0  0  0
   -2.6500   -8.5020   19.5550 O   0  0  0  0  0  0  0  0  0  0  0  0
   -0.0080   -9.0780   13.1770 C   0  0  0  0  0  0  0  0  0  0  0  0
   -1.7900  -10.1990   16.3290 C   0  0  0  0  0  0  0  0  0  0  0  0
   -2.8110   -8.9880   20.7410 C   0  0  0  0  0  0  0  0  0  0  0  0
   -4.5690  -12.2900   19.7750 C   0  0  0  0  0  0  0  0  0  0  0  0
   -3.7450  -10.6970   17.6640 N   0  0  0  0  0  0  0  0  0  0  0  0
   -1.0030   -9.8070   14.0580 C   0  0  0  0  0  0  0  0  0  0  0  0
   -1.9520  -10.4240   13.4710 N   0  0  0  0  0  0  0  0  0  0  0  0
   -1.0390   -7.5510   21.8980 C   0  0  0  0  0  0  0  0  0  0  0  0
    0.1230   -8.1100   22.7660 C   0  0  0  0  0  0  0  0  0  0  0  0
   -1.9780   -8.7390   21.9960 N   0  0  0  0  0  0  0  0  0  0  0  0
   -4.2030  -12.7090   15.6760 C   0  0  0  0  0  0  0  0  0  0  0  0
   -2.8520  -10.9320   16.7060 C   0  0  0  0  0  0  0  0  0  0  0  0
   -5.1370  -12.0090   21.1850 C   0  0  0  0  0  0  0  0  0  0  0  0
    0.4160   -9.3400   22.2330 F   0  0  0  0  0  0  0  0  0  0  0  0
   -0.9450   -9.5880   15.4140 N   0  0  0  0  0  0  0  0  0  0  0  0
   -3.8010  -11.1000   19.1060 C   0  0  0  0  0  0  0  0  0  0  0  0
   -2.9960  -12.0570   15.9470 O   0  0  0  0  0  0  0  0  0  0  0  0
   -3.6120  -10.2300   20.9210 C   0  0  0  0  0  0  0  0  0  0  0  0
   -0.3560   -8.3090   24.0540 F   0  0  0  0  0  0  0  0  0  0  0  0
   -3.9930  -11.2080   22.2130 S   0  0  0  0  0  0  0  0  0  0  0  0
  2  5  2  0
  3  8  1  0
  5 20  1  0
  5 12  1  0
  6 15  1  0
  7 18  1  0
  8 17  1  0
  9  8  2  0
 10 12  1  0
 10 11  1  0
 11 21  1  0
 12  1  1  0
 13 19  1  0
 14  4  1  0
 14  7  1  0
 15 22  1  0
 16 11  1  0
 17  4  2  3
 18  6  1  0
 19 14  1  0
 20 22  1  0
M  END
$$$$

     RDKit          3D

 15 15  0  0  0  0  0  0  0  0999 V2000
   -3.8600  -11.7740   15.8790 C   0  0  0  0  0  0  0  0  0  0  0  0
   -2.8250  -11.1890   15.1800 N   0  0  0  0  0  0  0  0  0  0  0  0
   -1.9540  -10.3020   13.5630 C   0  0  0  0  0  0  0  0  0  0  0  0
   -0.0660  -10.3050   22.8420 C   0  0  0  0  0  0  0  0  0  0  0  0
   -0.9650  -10.4460   21.6030 C   0  0  0  0  0  0  0  0  0  0  0  0
   -1.5710  -10.6670   15.5870 C   0  0  0  0  0  0  0  0  0  0  0  0
   -2.3000  -11.0630   21.3150 C   0  0  0  0  0  0  0  0  0  0  0  0
   -2.9610  -11.0550   14.0440 N   0  0  0  0  0  0  0  0  0  0  0  0
   -3.7750  -11.9900   17.2850 C   0  0  0  0  0  0  0  0  0  0  0  0
   -2.4520  -11.2050   19.8140 C   0  0  0  0  0  0  0  0  0  0  0  0
   -4.6530  -12.7160   15.1350 O   0  0  0  0  0  0  0  0  0  0  0  0
   -4.4920  -11.9990   20.1960 N   0  0  0  0  0  0  0  0  0  0  0  0
   -4.0640  -10.9890   18.1770 N   0  0  0  0  0  0  0  0  0  0  0  0
   -1.0910  -10.1330   14.5080 C   0  0  0  0  0  0  0  0  0  0  0  0
   -3.9690  -11.0970   19.5430 C   0  0  0  0  0  0  0  0  0  0  0  0
  1  9  1  0
  2  6  4  0
  2  1  1  0
  3  8  4  0
  3 14  4  0
  5  4  1  0
  7  5  1  0
  8  2  4  0
  9 13  2  3
 10  7  1  0
 11  1  2  0
 13 15  1  0
 14  6  4  0
 15 10  1  0
 15 12  1  0
M  END
$$$$
