
     RDKit          3D

 26 28  0  0  0  0  0  0  0  0999 V2000
   -2.3620  -12.0620   14.6730 O   0  0  0  0  0  0  0  0  0  0  0  0
   -1.6060  -10.2200   15.4600 N   0  0  0  0  0  0  0  0  0  0  0  0
   -0.8860   -9.3410   14.8580 C   0  0  0  0  0  0  0  0  0  0  0  0
   -2.9860  -10.9430   22.6820 N   0  0  0  0  0  0  0  0  0  0  0  0
   -2.3830  -10.6390   16.4010 C   0  0  0  0  0  0  0  0  0  0  0  0
   -2.8300  -10.4440   17.5840 C   0  0  0  0  0  0  0  0  0  0  0  0
    0.0940   -8.8590   12.6400 C   0  0  0  0  0  0  0  0  0  0  0  0
    0.8020   -7.7470   13.2320 C   0  0  0  0  0  0  0  0  0  0  0  0
   -5.2470  -11.5200   21.2020 N   0  0  0  0  0  0  0  0  0  0  0  0
   -4.0470  -11.2680   20.6110 C   0  0  0  0  0  0  0  0  0  0  0  0
    0.7930   -5.6690   16.4320 C   0  0  0  0  0  0  0  0  0  0  0  0
   -4.0930  -11.0930   23.2900 C   0  0  0  0  0  0  0  0  0  0  0  0
    0.6590   -6.1340   14.9230 N   0  0  0  0  0  0  0  0  0  0  0  0
   -2.9630  -11.7150   15.6270 C   0  0  0  0  0  0  0  0  0  0  0  0
   -4.2650  -12.4060   17.4730 C   0  0  0  0  0  0  0  0  0  0  0  0
   -1.8510  -10.7690   23.3420 O   0  0  0  0  0  0  0  0  0  0  0  0
   -0.4780   -7.9660   15.6160 C   0  0  0  0  0  0  0  0  0  0  0  0
   -3.6450  -11.3490   18.2000 C   0  0  0  0  0  0  0  0  0  0  0  0
   -3.9540  -12.5660   16.1800 C   0  0  0  0  0  0  0  0  0  0  0  0
   -2.9020  -10.9910   21.3370 C   0  0  0  0  0  0  0  0  0  0  0  0
    0.2540   -7.3760   14.6760 C   0  0  0  0  0  0  0  0  0  0  0  0
   -2.4440   -9.1640   18.1270 C   0  0  0  0  0  0  0  0  0  0  0  0
   -3.9920  -11.3400   19.4140 O   0  0  0  0  0  0  0  0  0  0  0  0
   -5.2740  -11.4280   22.5010 C   0  0  0  0  0  0  0  0  0  0  0  0
   -1.3250  -10.7630   20.6180 Cl  0  0  0  0  0  0  0  0  0  0  0  0
   -0.2840  -10.0110   13.6500 C   0  0  0  0  0  0  0  0  0  0  0  0
  1 14  2  0
  3  2  2  3
  3 17  1  0
  4 12  1  0
  4 16  1  0
  5  2  1  0
  5  6  1  0
  6 22  1  0
  6 18  2  0
  7  8  1  0
  7 26  1  0
  8 21  1  0
  9 24  1  0
 10  9  2  0
 10 20  1  0
 13 11  1  0
 14 19  1  0
 14  5  1  0
 15 18  1  0
 18 23  1  0
 19 15  2  0
 20 25  1  0
 20  4  1  0
 21 13  1  0
 21 17  1  0
 23 10  1  0
 24 12  2  0
 26  3  1  0
M  END
$$$$

     RDKit          3D

 27 31  0  0  0  0  0  0  0  0999 V2000
    0.9020   -8.5850   11.8310 C   0  0  0  0  0  0  0  0  0  0  0  0
   -4.7190  -12.3040   24.3330 C   0  0  0  0  0  0  0  0  0  0  0  0
   -3.9400  -12.1230   14.5270 C   0  0  0  0  0  0  0  0  0  0  0  0
   -2.5710  -10.8920   16.3980 C   0  0  0  0  0  0  0  0  0  0  0  0
   -0.9530  -10.5400   21.2700 C   0  0  0  0  0  0  0  0  0  0  0  0
   -3.2710  -11.7090   17.4360 C   0  0  0  0  0  0  0  0  0  0  0  0
    1.2190   -8.0680   10.6160 O   0  0  0  0  0  0  0  0  0  0  0  0
   -3.5320   -9.7820   22.3690 C   0  0  0  0  0  0  0  0  0  0  0  0
    0.7190   -7.7720   14.0110 O   0  0  0  0  0  0  0  0  0  0  0  0
   -1.5580   -9.9560   16.8180 C   0  0  0  0  0  0  0  0  0  0  0  0
   -4.0970  -11.6970   23.5700 N   0  0  0  0  0  0  0  0  0  0  0  0
   -2.0510  -10.4430   14.0180 C   0  0  0  0  0  0  0  0  0  0  0  0
   -3.8410  -13.0160   17.0060 C   0  0  0  0  0  0  0  0  0  0  0  0
   -1.5270   -9.5870   18.1900 C   0  0  0  0  0  0  0  0  0  0  0  0
   -3.8910  -10.3730   23.7170 C   0  0  0  0  0  0  0  0  0  0  0  0
    1.4780   -7.4480   12.6350 C   0  0  0  0  0  0  0  0  0  0  0  0
   -0.7640   -9.4130   15.8340 C   0  0  0  0  0  0  0  0  0  0  0  0
   -2.0480  -10.1510   20.5820 N   0  0  0  0  0  0  0  0  0  0  0  0
    1.7220   -6.7610   11.2300 C   0  0  0  0  0  0  0  0  0  0  0  0
   -1.0120   -9.5200   14.4530 C   0  0  0  0  0  0  0  0  0  0  0  0
   -3.2410  -11.2330   18.7230 C   0  0  0  0  0  0  0  0  0  0  0  0
   -4.7550  -12.6110   15.7460 C   0  0  0  0  0  0  0  0  0  0  0  0
   -2.2170  -10.2810   19.2050 C   0  0  0  0  0  0  0  0  0  0  0  0
   -0.1950   -8.5950   13.7540 C   0  0  0  0  0  0  0  0  0  0  0  0
   -2.1900  -10.3300   21.9470 C   0  0  0  0  0  0  0  0  0  0  0  0
   -2.8690  -11.1300   15.0260 C   0  0  0  0  0  0  0  0  0  0  0  0
   -4.6650  -12.0260   22.4540 O   0  0  0  0  0  0  0  0  0  0  0  0
  1 16  1  0
  3 26  1  0
  3 22  1  0
  4 10  4  0
  4  6  4  0
  5 25  1  0
  6 21  4  0
  7 19  1  0
  7  1  1  0
  8 15  1  0
 10 14  4  0
 11 15  1  0
 11  2  1  0
 12 20  4  0
 12 26  4  0
 13  6  1  0
 14 23  4  0
 16  9  1  0
 17 10  4  0
 18  5  1  0
 18 25  1  0
 19 16  1  0
 20 17  4  0
 21 23  4  0
 22 13  1  0
 23 18  1  0
 24  9  1  0
 24 20  1  0
 25  8  1  0
 26  4  4  0
 27 11  1  0
M  END
$$$$

     RDKit          3D

 18 19  0  0  0  0  0  0  0  0999 V2000
   -2.0000  -10.2550   16.8320 C   0  0  0  0  0  0  0  0  0  0  0  0
   -1.0040   -9.5120   16.7460 C   0  0  0  0  0  0  0  0  0  0  0  0
   -1.8600   -9.5470   19.2530 C   0  0  0  0  0  0  0  0  0  0  0  0
   -2.3900   -9.8150   20.4980 C   0  0  0  0  0  0  0  0  0  0  0  0
   -3.5510  -12.0290   16.0040 C   0  0  0  0  0  0  0  0  0  0  0  0
   -5.0460  -11.7030   21.6170 O   0  0  0  0  0  0  0  0  0  0  0  0
   -3.5850  -11.2990   18.3620 C   0  0  0  0  0  0  0  0  0  0  0  0
   -3.7890  -11.2280   21.7690 C   0  0  0  0  0  0  0  0  0  0  0  0
   -0.3100   -8.6520   15.9780 N   0  0  0  0  0  0  0  0  0  0  0  0
   -2.4430  -11.0730   15.7720 C   0  0  0  0  0  0  0  0  0  0  0  0
   -1.8980  -10.8180   14.5590 C   0  0  0  0  0  0  0  0  0  0  0  0
   -0.3760   -8.8350   14.6510 C   0  0  0  0  0  0  0  0  0  0  0  0
   -3.1300  -11.0250   20.6920 N   0  0  0  0  0  0  0  0  0  0  0  0
   -2.5080  -10.3620   18.2230 C   0  0  0  0  0  0  0  0  0  0  0  0
   -3.3450  -11.0040   23.0640 C   0  0  0  0  0  0  0  0  0  0  0  0
   -4.1370  -12.0520   17.2830 C   0  0  0  0  0  0  0  0  0  0  0  0
   -3.9440  -12.9610   15.1660 N   0  0  0  0  0  0  0  0  0  0  0  0
   -1.0510   -9.9280   14.0830 C   0  0  0  0  0  0  0  0  0  0  0  0
  1 14  4  0
  2  1  4  0
  3  4  1  0
  4 13  2  3
  5 16  4  0
  6  8  2  0
  8 15  1  0
  9  2  4  0
 10  5  4  0
 10  1  1  0
 11 10  4  0
 12  9  4  0
 13  8  1  0
 14  7  4  0
 14  3  1  0
 16  7  4  0
 17  5  2  0
 18 11  4  0
 18 12  4  0
M  END
$$$$

     RDKit          3D

 27 29  0  0  0  0  0  0  0  0999 V2000
   -0.6410   -8.5980   15.3120 C   0  0  0  0  0  0  0  0  0  0  0  0
   -1.0210  -11.2580   21.3810 C   0  0  0  0  0  0  0  0  0  0  0  0
   -2.9100  -11.4370   14.7660 C   0  0  0  0  0  0  0  0  0  0  0  0
   -0.6160   -8.9150   24.0180 F   0  0  0  0  0  0  0  0  0  0  0  0
   -2.0300  -10.6960   16.7600 C   0  0  0  0  0  0  0  0  0  0  0  0
   -4.9810  -12.5820   17.4840 O   0  0  0  0  0  0  0  0  0  0  0  0
   -4.7870  -11.7090   23.0960 O   0  0  0  0  0  0  0  0  0  0  0  0
   -3.0470  -10.0990   21.5940 C   0  0  0  0  0  0  0  0  0  0  0  0
    0.1760   -9.0850   12.7600 C   0  0  0  0  0  0  0  0  0  0  0  0
   -2.0180  -10.6800   15.4460 C   0  0  0  0  0  0  0  0  0  0  0  0
   -4.9820  -11.3130   21.9820 C   0  0  0  0  0  0  0  0  0  0  0  0
   -0.4370  -10.5560   22.4060 C   0  0  0  0  0  0  0  0  0  0  0  0
   -1.0830   -9.7840   14.6950 C   0  0  0  0  0  0  0  0  0  0  0  0
    0.5360   -7.9320   13.2980 C   0  0  0  0  0  0  0  0  0  0  0  0
   -2.7710  -11.4600   19.8580 N   0  0  0  0  0  0  0  0  0  0  0  0
   -3.4310  -10.6940   18.8130 N   0  0  0  0  0  0  0  0  0  0  0  0
   -4.0350  -11.9770   16.7590 C   0  0  0  0  0  0  0  0  0  0  0  0
   -2.3750   -9.3220   22.5620 C   0  0  0  0  0  0  0  0  0  0  0  0
    0.1100   -7.6960   14.6840 C   0  0  0  0  0  0  0  0  0  0  0  0
   -3.8840  -12.1160   15.4490 C   0  0  0  0  0  0  0  0  0  0  0  0
   -0.5910  -10.0200   13.4250 C   0  0  0  0  0  0  0  0  0  0  0  0
   -5.7430  -11.8650   21.1550 O   0  0  0  0  0  0  0  0  0  0  0  0
   -2.2670  -10.8540   20.9660 C   0  0  0  0  0  0  0  0  0  0  0  0
   -1.1240   -9.6150   23.0320 C   0  0  0  0  0  0  0  0  0  0  0  0
   -4.4680  -10.0300   21.4500 C   0  0  0  0  0  0  0  0  0  0  0  0
    1.1150   -6.5850   12.9340 C   0  0  0  0  0  0  0  0  0  0  0  0
   -3.1170  -11.1010   17.4160 C   0  0  0  0  0  0  0  0  0  0  0  0
  2 12  4  0
  3 10  4  0
  3 20  4  0
  5 27  4  0
  8 18  4  0
  9 14  4  0
  9 21  4  0
 10  5  4  0
 11  7  1  0
 12 24  4  0
 13  1  4  0
 13 10  1  0
 14 19  4  0
 15 23  1  0
 16 15  1  0
 17 27  4  0
 17  6  1  0
 18 24  4  0
 19  1  4  0
 20 17  4  0
 21 13  4  0
 22 11  2  0
 23  2  4  0
 23  8  4  0
 24  4  1  0
 25  8  1  0
 25 11  1  0
 26 14  1  0
 27 16  1  0
M  END
$$$$

     RDKit          3D

 20 21  0  0  0  0  0  0  0  0999 V2000
   -3.6320  -10.8890   13.7470 O   0  0  0  0  0  0  0  0  0  0  0  0
   -2.3980  -10.3220   20.8670 C   0  0  0  0  0  0  0  0  0  0  0  0
   -1.0670  -11.9040   22.4650 O   0  0  0  0  0  0  0  0  0  0  0  0
   -2.5850  -11.2940   16.3340 C   0  0  0  0  0  0  0  0  0  0  0  0
   -0.4330  -10.4440   15.2150 C   0  0  0  0  0  0  0  0  0  0  0  0
   -1.8920  -10.7400   22.6530 S   0  0  0  0  0  0  0  0  0  0  0  0
   -4.0770  -12.2140   16.4470 C   0  0  0  0  0  0  0  0  0  0  0  0
   -2.6350  -10.5670   14.6620 C   0  0  0  0  0  0  0  0  0  0  0  0
   -1.0590  -11.3440   16.1930 O   0  0  0  0  0  0  0  0  0  0  0  0
   -5.1030  -11.5790   15.8320 C   0  0  0  0  0  0  0  0  0  0  0  0
   -3.6930  -13.5700   15.8170 C   0  0  0  0  0  0  0  0  0  0  0  0
   -1.2630   -9.5400   23.1240 O   0  0  0  0  0  0  0  0  0  0  0  0
   -1.7320   -9.3380   19.9650 C   0  0  0  0  0  0  0  0  0  0  0  0
   -3.2350  -11.1530   20.2390 C   0  0  0  0  0  0  0  0  0  0  0  0
   -1.8030   -9.7110   18.5800 C   0  0  0  0  0  0  0  0  0  0  0  0
   -2.4820  -10.8310   18.0740 C   0  0  0  0  0  0  0  0  0  0  0  0
   -1.1380   -8.2100   20.4400 O   0  0  0  0  0  0  0  0  0  0  0  0
   -1.3530  -10.2320   14.0340 C   0  0  0  0  0  0  0  0  0  0  0  0
   -2.9920  -11.1980   23.2940 O   0  0  0  0  0  0  0  0  0  0  0  0
   -3.3180  -11.4930   18.9430 C   0  0  0  0  0  0  0  0  0  0  0  0
  2  6  1  0
  3  6  1  0
  4  7  1  0
  4 16  1  0
  5  9  1  0
  6 12  1  0
  6 19  1  0
  8  1  1  0
  8  4  1  0
  9  4  1  0
 10  7  1  0
 11  7  1  0
 13 17  1  0
 13  2  4  0
 14  2  4  0
 15 13  4  0
 16 15  4  0
 16 20  4  0
 18  8  1  0
 18  5  1  0
 20 14  4  0
M  END
$$$$

     RDKit          3D

 21 23  0  0  0  0  0  0  0  0999 V2000
   -1.7200   -9.1680   16.7550 N   0  0  0  0  0  0  0  0  0  0  0  0
   -3.7680   -8.8280   21.8930 C   0  0  0  0  0  0  0  0  0  0  0  0
   -1.4360  -12.0460   20.5230 O   0  0  0  0  0  0  0  0  0  0  0  0
   -2.5350  -10.3590   18.6060 N   0  0  0  0  0  0  0  0  0  0  0  0
   -2.4620   -8.0330   21.6740 N   0  0  0  0  0  0  0  0  0  0  0  0
   -3.0990  -11.3890   14.2430 N   0  0  0  0  0  0  0  0  0  0  0  0
   -1.9890  -10.9680   20.8760 C   0  0  0  0  0  0  0  0  0  0  0  0
   -1.9420   -9.2720   18.0370 C   0  0  0  0  0  0  0  0  0  0  0  0
   -2.2950  -10.0900   15.8640 C   0  0  0  0  0  0  0  0  0  0  0  0
   -4.3990  -13.1890   15.5320 C   0  0  0  0  0  0  0  0  0  0  0  0
   -0.3880   -8.7830   20.9210 O   0  0  0  0  0  0  0  0  0  0  0  0
   -3.5100  -12.0060   15.4160 C   0  0  0  0  0  0  0  0  0  0  0  0
   -4.0330   -9.5580   20.5900 C   0  0  0  0  0  0  0  0  0  0  0  0
   -3.9050  -12.2580   18.3550 O   0  0  0  0  0  0  0  0  0  0  0  0
   -2.3590  -10.2490   14.5150 C   0  0  0  0  0  0  0  0  0  0  0  0
   -2.8670  -10.3950   20.0220 C   0  0  0  0  0  0  0  0  0  0  0  0
   -1.3000   -8.8760   22.0070 C   0  0  0  0  0  0  0  0  0  0  0  0
   -2.8460  -11.5630   17.8960 C   0  0  0  0  0  0  0  0  0  0  0  0
   -2.9270  -11.2880   16.4320 C   0  0  0  0  0  0  0  0  0  0  0  0
   -0.3580  -10.9610   22.9040 C   0  0  0  0  0  0  0  0  0  0  0  0
   -1.6890  -10.3280   22.1970 C   0  0  0  0  0  0  0  0  0  0  0  0
  1  8  1  0
  3  7  2  0
  4  8  1  0
  4 16  1  0
  5  2  1  0
  5 17  1  0
  6 15  1  0
  6 12  2  0
  7 21  1  0
  9 19  1  0
  9  1  2  0
 12 10  1  0
 13  2  1  0
 15  9  1  0
 16 13  1  0
 16  7  1  0
 17 11  1  0
 17 21  1  0
 18 14  1  0
 18  4  1  0
 19 12  1  0
 19 18  1  0
 21 20  1  0
M  END
$$$$

     RDKit          3D

 14 15  0  0  0  0  0  0  0  0999 V2000
   -3.4460  -11.0510   19.1630 N   0  0  0  0  0  0  0  0  0  0  0  0
   -4.0520  -11.2330   19.9690 C   0  0  0  0  0  0  0  0  0  0  0  0
    0.2530  -10.1050   22.0620 C   0  0  0  0  0  0  0  0  0  0  0  0
   -5.3850  -11.9870   21.6440 C   0  0  0  0  0  0  0  0  0  0  0  0
   -5.6650  -12.1530   22.9500 C   0  0  0  0  0  0  0  0  0  0  0  0
   -1.0120  -10.7790   21.4930 C   0  0  0  0  0  0  0  0  0  0  0  0
   -0.7700   -8.3380   21.7580 C   0  0  0  0  0  0  0  0  0  0  0  0
    0.1560   -8.8770   22.4230 C   0  0  0  0  0  0  0  0  0  0  0  0
   -1.3520   -9.2160   23.1010 C   0  0  0  0  0  0  0  0  0  0  0  0
   -4.3090  -11.3130   21.2520 C   0  0  0  0  0  0  0  0  0  0  0  0
   -3.3510  -10.7850   22.2540 C   0  0  0  0  0  0  0  0  0  0  0  0
   -3.6730  -10.9900   23.5130 N   0  0  0  0  0  0  0  0  0  0  0  0
   -4.7950  -11.6840   23.8880 C   0  0  0  0  0  0  0  0  0  0  0  0
   -2.1390  -10.1160   22.2510 N   0  0  0  0  0  0  0  0  0  0  0  0
  1  2  2  0
  2 10  1  0
  3  8  1  0
  4  5  4  0
  5 13  4  0
  6  3  1  0
  6 14  1  0
  8  7  1  0
  8  9  1  0
 10  4  4  0
 10 11  4  0
 11 12  4  0
 12 13  4  0
 14 11  1  0
 14  9  1  0
M  END
$$$$

     RDKit          3D

 38 42  0  0  0  0  0  0  0  0999 V2000
   -1.2680  -12.4890   21.7010 O   0  0  0  0  0  0  0  0  0  0  0  0
   -5.4920  -11.1280   21.8060 O   0  0  0  0  0  0  0  0  0  0  0  0
    1.8560   -7.2090   11.9890 C   0  0  0  0  0  0  0  0  0  0  0  0
   -3.8630  -12.1820   17.6260 C   0  0  0  0  0  0  0  0  0  0  0  0
   -0.4510   -8.0750   16.1050 C   0  0  0  0  0  0  0  0  0  0  0  0
   -2.6310  -11.2890   15.9420 C   0  0  0  0  0  0  0  0  0  0  0  0
   -2.1590   -8.5880   21.6560 C   0  0  0  0  0  0  0  0  0  0  0  0
   -3.7180  -11.1270   13.9350 O   0  0  0  0  0  0  0  0  0  0  0  0
   -0.0130   -7.7040   22.1930 O   0  0  0  0  0  0  0  0  0  0  0  0
   -3.5790  -11.7510   15.0710 C   0  0  0  0  0  0  0  0  0  0  0  0
    0.0120   -8.9380   12.9930 C   0  0  0  0  0  0  0  0  0  0  0  0
   -2.6140   -8.3410   23.0250 C   0  0  0  0  0  0  0  0  0  0  0  0
   -3.0290  -11.2040   17.1580 C   0  0  0  0  0  0  0  0  0  0  0  0
   -4.4720  -13.0570   16.7990 C   0  0  0  0  0  0  0  0  0  0  0  0
    1.4080   -6.9420   13.2200 C   0  0  0  0  0  0  0  0  0  0  0  0
   -2.8860  -10.3190   19.5830 C   0  0  0  0  0  0  0  0  0  0  0  0
   -2.9540   -9.7650   20.9790 C   0  0  0  0  0  0  0  0  0  0  0  0
   -1.1100   -9.9640   14.9760 N   0  0  0  0  0  0  0  0  0  0  0  0
   -1.3600  -11.2210   15.4960 C   0  0  0  0  0  0  0  0  0  0  0  0
    1.5000   -8.3280   11.2110 C   0  0  0  0  0  0  0  0  0  0  0  0
    0.5210   -9.2010   11.7410 C   0  0  0  0  0  0  0  0  0  0  0  0
   -1.1540   -9.7000   13.5230 C   0  0  0  0  0  0  0  0  0  0  0  0
    0.2280   -7.7610   15.1710 C   0  0  0  0  0  0  0  0  0  0  0  0
   -1.9530   -9.0040   17.7520 C   0  0  0  0  0  0  0  0  0  0  0  0
   -1.2040   -9.1340   16.2850 C   0  0  0  0  0  0  0  0  0  0  0  0
   -1.2350  -10.9180   23.2870 O   0  0  0  0  0  0  0  0  0  0  0  0
   -4.4620  -11.0710   22.4320 C   0  0  0  0  0  0  0  0  0  0  0  0
   -3.2190  -11.0790   21.8140 C   0  0  0  0  0  0  0  0  0  0  0  0
   -4.3870  -12.7840   15.4320 C   0  0  0  0  0  0  0  0  0  0  0  0
    0.4620   -7.9050   13.7790 C   0  0  0  0  0  0  0  0  0  0  0  0
   -2.5530   -7.2590   21.0110 C   0  0  0  0  0  0  0  0  0  0  0  0
   -0.1370   -9.1580   20.6050 O   0  0  0  0  0  0  0  0  0  0  0  0
   -0.6580   -8.8610   21.7540 C   0  0  0  0  0  0  0  0  0  0  0  0
   -4.4340  -10.8800   23.9340 C   0  0  0  0  0  0  0  0  0  0  0  0
   -0.1250  -10.0100   22.6450 C   0  0  0  0  0  0  0  0  0  0  0  0
   -1.8860   -8.0550   18.4790 O   0  0  0  0  0  0  0  0  0  0  0  0
   -2.5550  -10.1710   18.1680 N   0  0  0  0  0  0  0  0  0  0  0  0
   -1.9210  -11.5280   22.2770 C   0  0  0  0  0  0  0  0  0  0  0  0
  1 38  2  0
  2 27  2  0
  3 15  4  0
  5 25  2  0
  6 13  4  0
  7 33  1  0
  7 12  1  0
  8 10  1  0
 10 29  4  0
 10  6  4  0
 11 22  1  0
 11 30  4  0
 13  4  4  0
 13 37  1  0
 14  4  4  0
 15 30  4  0
 17 16  1  0
 17  7  1  0
 17 28  1  0
 18 19  1  0
 18 25  1  0
 19  6  1  0
 20 21  4  0
 20  3  4  0
 21 11  4  0
 22 18  1  0
 23  5  1  0
 24 37  1  0
 24 36  2  0
 25 24  1  0
 27 34  1  0
 28 38  1  0
 28 27  1  0
 29 14  4  0
 30 23  1  0
 31  7  1  0
 32 33  1  0
 33  9  1  0
 33 35  1  0
 35 26  1  0
 37 16  1  0
 38 26  1  0
M  END
$$$$

     RDKit          3D

 18 20  0  0  0  0  0  0  0  0999 V2000
   -1.4330  -10.3730   15.2820 C   0  0  0  0  0  0  0  0  0  0  0  0
    0.2770   -8.7230   12.3930 C   0  0  0  0  0  0  0  0  0  0  0  0
   -3.8230  -12.1360   15.5310 C   0  0  0  0  0  0  0  0  0  0  0  0
   -3.8490  -10.1120   19.1840 O   0  0  0  0  0  0  0  0  0  0  0  0
   -0.4100   -9.6510   13.1170 C   0  0  0  0  0  0  0  0  0  0  0  0
   -2.6630  -12.7170   15.3500 O   0  0  0  0  0  0  0  0  0  0  0  0
   -3.1770  -11.1520   16.8340 C   0  0  0  0  0  0  0  0  0  0  0  0
    0.6110   -7.4110   14.3000 C   0  0  0  0  0  0  0  0  0  0  0  0
   -2.1630  -10.6270   16.4730 N   0  0  0  0  0  0  0  0  0  0  0  0
   -1.1750   -9.8240   16.9080 C   0  0  0  0  0  0  0  0  0  0  0  0
   -2.9160  -10.8030   18.5740 S   0  0  0  0  0  0  0  0  0  0  0  0
   -4.8370  -11.6090   15.0350 F   0  0  0  0  0  0  0  0  0  0  0  0
   -0.1070   -8.2880   15.1110 C   0  0  0  0  0  0  0  0  0  0  0  0
   -2.1430  -11.8300   19.1830 O   0  0  0  0  0  0  0  0  0  0  0  0
   -1.5890   -9.4830   18.3640 C   0  0  0  0  0  0  0  0  0  0  0  0
    0.8360   -7.6020   12.9050 C   0  0  0  0  0  0  0  0  0  0  0  0
   -0.6410   -9.4230   14.5560 C   0  0  0  0  0  0  0  0  0  0  0  0
   -5.0430  -13.0110   15.2460 C   0  0  0  0  0  0  0  0  0  0  0  0
  1 17  1  0
  1  9  1  0
  1 10  1  0
  2 16  4  0
  2  5  4  0
  3 18  1  0
  3  7  1  0
  5 17  4  0
  6  3  1  0
  7 11  1  0
  8 13  4  0
  9  7  1  0
  9 10  1  0
 10 15  1  0
 11 14  2  0
 11  4  2  0
 12  3  1  0
 15 11  1  0
 16  8  4  0
 17 13  4  0
M  END
$$$$

     RDKit          3D

 30 34  0  0  0  0  0  0  0  0999 V2000
   -1.9970   -9.6670   22.4140 N   0  0  0  0  0  0  0  0  0  0  0  0
   -4.3660  -11.1260   19.7850 C   0  0  0  0  0  0  0  0  0  0  0  0
   -0.4390   -8.9690   12.9760 C   0  0  0  0  0  0  0  0  0  0  0  0
   -1.1810   -8.3300   21.4560 S   0  0  0  0  0  0  0  0  0  0  0  0
   -2.2150  -10.0290   15.9180 C   0  0  0  0  0  0  0  0  0  0  0  0
   -3.1770  -10.2200   21.8470 C   0  0  0  0  0  0  0  0  0  0  0  0
   -3.2010  -11.9640   15.2090 C   0  0  0  0  0  0  0  0  0  0  0  0
   -1.9550   -9.2090   17.0530 N   0  0  0  0  0  0  0  0  0  0  0  0
    0.6500   -9.2330   11.9740 C   0  0  0  0  0  0  0  0  0  0  0  0
   -3.3530  -10.3470   20.3610 C   0  0  0  0  0  0  0  0  0  0  0  0
   -1.4650   -8.7170   20.0060 N   0  0  0  0  0  0  0  0  0  0  0  0
   -4.9300  -12.0700   22.0450 C   0  0  0  0  0  0  0  0  0  0  0  0
   -1.6430  -10.4200   14.7570 N   0  0  0  0  0  0  0  0  0  0  0  0
   -1.4810   -8.0390   17.0290 C   0  0  0  0  0  0  0  0  0  0  0  0
   -0.3850   -9.6950   14.3100 C   0  0  0  0  0  0  0  0  0  0  0  0
   -4.8840  -11.7910   24.9140 C   0  0  0  0  0  0  0  0  0  0  0  0
   -4.3970  -11.4730   18.4720 C   0  0  0  0  0  0  0  0  0  0  0  0
   -2.5490   -9.8720   18.1380 C   0  0  0  0  0  0  0  0  0  0  0  0
   -4.1760  -13.1250   15.2680 C   0  0  0  0  0  0  0  0  0  0  0  0
   -3.3730  -10.8130   17.6400 C   0  0  0  0  0  0  0  0  0  0  0  0
   -4.5640  -13.0720   24.3530 C   0  0  0  0  0  0  0  0  0  0  0  0
   -2.2970  -11.4900   14.2700 N   0  0  0  0  0  0  0  0  0  0  0  0
   -2.4260   -9.6540   19.4510 C   0  0  0  0  0  0  0  0  0  0  0  0
    0.3130   -8.6910   21.8610 O   0  0  0  0  0  0  0  0  0  0  0  0
   -5.2750  -13.2040   23.0060 C   0  0  0  0  0  0  0  0  0  0  0  0
   -0.6880   -7.2270   16.8130 O   0  0  0  0  0  0  0  0  0  0  0  0
   -4.1550  -10.6750   24.0980 C   0  0  0  0  0  0  0  0  0  0  0  0
   -4.2920  -10.7390   22.6020 C   0  0  0  0  0  0  0  0  0  0  0  0
   -1.4980   -7.1460   21.8890 O   0  0  0  0  0  0  0  0  0  0  0  0
   -3.1380  -11.0490   16.3200 C   0  0  0  0  0  0  0  0  0  0  0  0
  3 15  1  0
  4 24  2  0
  4 29  2  0
  4  1  1  0
  5 30  4  0
  5  8  4  0
  6  1  2  0
  6 28  1  0
  7 19  1  0
  7 30  4  0
  8 18  4  0
  9  3  1  0
 10  2  1  0
 10  6  1  0
 11  4  1  0
 12 28  1  0
 12 25  1  0
 13  5  4  0
 14  8  1  0
 15 13  1  0
 17  2  2  0
 18 23  1  0
 20 18  4  0
 20 17  1  0
 21 16  1  0
 22 13  4  0
 22  7  4  0
 23 11  2  0
 23 10  1  0
 25 21  1  0
 26 14  1  0
 27 16  1  0
 28 27  1  0
 30 20  4  0
M  END
$$$$

     RDKit          3D

 15 17  0  0  0  0  0  0  0  0999 V2000
   -2.5550  -11.1980   15.6250 C   0  0  0  0  0  0  0  0  0  0  0  0
   -3.1320  -10.2270   20.0250 O   0  0  0  0  0  0  0  0  0  0  0  0
   -2.4460   -9.9400   18.8010 N   0  0  0  0  0  0  0  0  0  0  0  0
   -2.9270  -10.7670   17.9240 C   0  0  0  0  0  0  0  0  0  0  0  0
   -1.4610   -9.0010   18.1490 N   0  0  0  0  0  0  0  0  0  0  0  0
   -0.3640   -7.2610   15.9470 S   0  0  0  0  0  0  0  0  0  0  0  0
   -1.0880   -9.7470   14.5540 C   0  0  0  0  0  0  0  0  0  0  0  0
   -1.5570   -9.4310   16.8440 C   0  0  0  0  0  0  0  0  0  0  0  0
   -3.8810  -11.7550   18.0230 C   0  0  0  0  0  0  0  0  0  0  0  0
   -0.9330   -8.9220   15.6480 C   0  0  0  0  0  0  0  0  0  0  0  0
   -1.8700  -10.8780   14.4820 N   0  0  0  0  0  0  0  0  0  0  0  0
   -4.1160  -12.5620   16.8860 C   0  0  0  0  0  0  0  0  0  0  0  0
   -3.4230  -12.2400   15.7250 C   0  0  0  0  0  0  0  0  0  0  0  0
   -2.3580  -10.5560   16.7650 C   0  0  0  0  0  0  0  0  0  0  0  0
    0.6350   -7.1440   14.4320 C   0  0  0  0  0  0  0  0  0  0  0  0
  1 13  1  0
  1 14  4  0
  3  2  1  0
  4  9  1  0
  4  3  4  0
  5  3  4  0
  7 10  4  0
  8  5  4  0
 10  6  1  0
 10  8  4  0
 11  7  4  0
 11  1  4  0
 12  9  1  0
 13 12  2  0
 14  8  4  0
 14  4  4  0
 15  6  1  0
M  END
$$$$

     RDKit          3D

 17 18  0  0  0  0  0  0  0  0999 V2000
   -1.5760  -10.8060   22.0250 C   0  0  0  0  0  0  0  0  0  0  0  0
   -1.7490   -9.0000   16.6270 C   0  0  0  0  0  0  0  0  0  0  0  0
   -0.9440   -8.9750   15.4800 C   0  0  0  0  0  0  0  0  0  0  0  0
   -3.4970  -10.1190   18.2390 N   0  0  0  0  0  0  0  0  0  0  0  0
   -1.3710  -11.0150   20.7160 C   0  0  0  0  0  0  0  0  0  0  0  0
   -2.9450  -10.7380   22.1840 C   0  0  0  0  0  0  0  0  0  0  0  0
   -3.5070  -12.3530   16.2780 C   0  0  0  0  0  0  0  0  0  0  0  0
   -1.8810  -11.2550   14.8050 C   0  0  0  0  0  0  0  0  0  0  0  0
   -3.5540  -13.2290   15.3840 O   0  0  0  0  0  0  0  0  0  0  0  0
   -3.7340  -10.6900   20.8910 C   0  0  0  0  0  0  0  0  0  0  0  0
   -2.6900  -10.1040   17.0410 C   0  0  0  0  0  0  0  0  0  0  0  0
   -4.4950  -12.3680   17.1790 O   0  0  0  0  0  0  0  0  0  0  0  0
   -0.9540  -10.1510   14.5800 C   0  0  0  0  0  0  0  0  0  0  0  0
   -0.3030  -10.4450   23.1940 Cl  0  0  0  0  0  0  0  0  0  0  0  0
   -3.0280  -10.3780   19.4350 C   0  0  0  0  0  0  0  0  0  0  0  0
   -2.7300  -11.2350   16.0730 C   0  0  0  0  0  0  0  0  0  0  0  0
   -1.7020  -10.5670   19.4800 C   0  0  0  0  0  0  0  0  0  0  0  0
  1  6  1  0
  1 14  1  0
  2 11  4  0
  3  2  4  0
  4 15  2  3
  5  1  1  0
  7 12  1  0
  8 16  4  0
  9  7  2  0
 10  6  1  0
 11  4  1  0
 13  8  4  0
 13  3  4  0
 15 17  1  0
 15 10  1  0
 16  7  1  0
 16 11  4  0
 17  5  1  0
M  END
$$$$

     RDKit          3D

 40 43  0  0  0  0  0  0  0  0999 V2000
   -5.7290  -12.9230   23.8640 C   0  0  0  0  0  0  0  0  0  0  0  0
    0.6010   -7.6650   13.8360 N   0  0  0  0  0  0  0  0  0  0  0  0
   -0.5830   -7.6840   21.2680 C   0  0  0  0  0  0  0  0  0  0  0  0
   -3.3000  -11.0920   14.0080 N   0  0  0  0  0  0  0  0  0  0  0  0
    0.7240   -6.4320   16.9860 O   0  0  0  0  0  0  0  0  0  0  0  0
   -3.2890  -10.7620   22.8860 C   0  0  0  0  0  0  0  0  0  0  0  0
    0.0150   -9.9840   13.4700 C   0  0  0  0  0  0  0  0  0  0  0  0
   -0.3170   -6.2990   20.8750 C   0  0  0  0  0  0  0  0  0  0  0  0
    0.4750   -5.0340   16.9580 C   0  0  0  0  0  0  0  0  0  0  0  0
   -2.3590  -10.2150   19.3440 C   0  0  0  0  0  0  0  0  0  0  0  0
   -6.3910  -13.0290   21.4330 F   0  0  0  0  0  0  0  0  0  0  0  0
   -5.2500  -11.4690   23.3770 C   0  0  0  0  0  0  0  0  0  0  0  0
   -0.3840   -8.4420   15.7650 O   0  0  0  0  0  0  0  0  0  0  0  0
   -2.3110  -10.4320   13.2520 N   0  0  0  0  0  0  0  0  0  0  0  0
    2.0210   -5.9800   14.7950 C   0  0  0  0  0  0  0  0  0  0  0  0
   -3.4850   -9.8230   23.4990 O   0  0  0  0  0  0  0  0  0  0  0  0
   -3.1410  -12.6440   15.8770 C   0  0  0  0  0  0  0  0  0  0  0  0
   -2.7980  -11.3090   15.2520 C   0  0  0  0  0  0  0  0  0  0  0  0
    0.3430   -8.3290   22.3320 C   0  0  0  0  0  0  0  0  0  0  0  0
    1.4510   -6.9610   15.8520 C   0  0  0  0  0  0  0  0  0  0  0  0
   -4.3300  -12.8540   20.7780 F   0  0  0  0  0  0  0  0  0  0  0  0
   -2.1290  -11.2440   22.4720 N   0  0  0  0  0  0  0  0  0  0  0  0
    0.4330   -7.7720   15.1200 C   0  0  0  0  0  0  0  0  0  0  0  0
   -4.2370  -11.8110   18.2190 C   0  0  0  0  0  0  0  0  0  0  0  0
    1.6030   -6.6110   13.4520 C   0  0  0  0  0  0  0  0  0  0  0  0
   -1.5390  -10.8740   15.1840 C   0  0  0  0  0  0  0  0  0  0  0  0
    0.0530   -8.5810   12.8310 C   0  0  0  0  0  0  0  0  0  0  0  0
   -4.3620  -11.5530   22.7130 N   0  0  0  0  0  0  0  0  0  0  0  0
   -2.5930  -11.7500   18.6830 S   0  0  0  0  0  0  0  0  0  0  0  0
   -0.0360   -9.7680   22.7280 C   0  0  0  0  0  0  0  0  0  0  0  0
   -5.3360  -13.0710   21.4870 C   0  0  0  0  0  0  0  0  0  0  0  0
   -1.7390   -8.1340   19.0730 O   0  0  0  0  0  0  0  0  0  0  0  0
   -1.3440   -8.5520   20.2890 C   0  0  0  0  0  0  0  0  0  0  0  0
   -1.2620  -10.3110   14.0330 N   0  0  0  0  0  0  0  0  0  0  0  0
   -1.0490  -10.4630   21.7990 C   0  0  0  0  0  0  0  0  0  0  0  0
   -5.8400  -13.6350   22.5500 C   0  0  0  0  0  0  0  0  0  0  0  0
   -2.1010  -13.3440   16.4950 N   0  0  0  0  0  0  0  0  0  0  0  0
   -1.6270   -9.8400   20.4560 C   0  0  0  0  0  0  0  0  0  0  0  0
   -4.3830  -12.3320   16.7500 C   0  0  0  0  0  0  0  0  0  0  0  0
   -2.4350   -9.1560   18.5210 C   0  0  0  0  0  0  0  0  0  0  0  0
  2 23  1  0
  3  8  1  0
  3 19  1  0
  4 18  1  0
  6 16  2  0
  7 34  1  0
  9  5  1  0
 10 38  4  0
 11 31  1  0
 12  1  1  0
 14  4  2  0
 14 34  1  0
 15 20  1  0
 17 37  1  0
 17 39  1  0
 18 17  1  0
 19 30  1  0
 20  5  1  0
 21 31  1  0
 22  6  1  0
 23 13  2  0
 23 20  1  0
 24 29  1  0
 25  2  1  0
 25 15  1  0
 26 18  1  0
 27  7  1  0
 27  2  1  0
 28  6  1  0
 28 12  1  0
 29 10  1  0
 31 36  1  0
 32 33  4  0
 33 38  4  0
 33  3  1  0
 34 26  1  0
 35 22  1  0
 35 30  1  0
 36  1  1  0
 38 35  1  0
 39 24  1  0
 40 32  4  0
 40 10  4  0
M  END
$$$$

     RDKit          3D

 21 22  0  0  0  0  0  0  0  0999 V2000
   -1.9500  -10.1030   15.8020 C   0  0  0  0  0  0  0  0  0  0  0  0
   -3.4670  -12.0440   14.6800 O   0  0  0  0  0  0  0  0  0  0  0  0
   -2.4440  -11.2760   16.6590 C   0  0  0  0  0  0  0  0  0  0  0  0
   -3.7980  -10.4500   20.5330 C   0  0  0  0  0  0  0  0  0  0  0  0
   -3.1330  -10.8150   17.9350 C   0  0  0  0  0  0  0  0  0  0  0  0
   -4.4040  -11.7180   20.0760 C   0  0  0  0  0  0  0  0  0  0  0  0
   -1.4210   -9.9730   14.2820 C   0  0  0  0  0  0  0  0  0  0  0  0
   -1.4250  -11.9500   17.4160 C   0  0  0  0  0  0  0  0  0  0  0  0
   -1.9080  -10.4830   13.3790 O   0  0  0  0  0  0  0  0  0  0  0  0
   -3.9550  -13.0940   16.5240 O   0  0  0  0  0  0  0  0  0  0  0  0
   -4.1670  -11.6690   18.5510 C   0  0  0  0  0  0  0  0  0  0  0  0
   -2.1570  -10.1210   18.7910 C   0  0  0  0  0  0  0  0  0  0  0  0
   -1.1400   -9.1960   18.1030 C   0  0  0  0  0  0  0  0  0  0  0  0
   -1.0890  -10.5430   22.5220 C   0  0  0  0  0  0  0  0  0  0  0  0
   -0.5540   -8.7290   20.8770 C   0  0  0  0  0  0  0  0  0  0  0  0
   -2.3050  -10.5970   20.2110 C   0  0  0  0  0  0  0  0  0  0  0  0
   -2.7920   -8.9500   21.9910 O   0  0  0  0  0  0  0  0  0  0  0  0
   -1.1370   -9.1220   16.6310 C   0  0  0  0  0  0  0  0  0  0  0  0
   -1.7280   -9.7020   21.3410 C   0  0  0  0  0  0  0  0  0  0  0  0
   -3.3040  -12.1710   15.8550 C   0  0  0  0  0  0  0  0  0  0  0  0
   -0.3570   -9.0410   13.8950 C   0  0  0  0  0  0  0  0  0  0  0  0
  1 18  2  0
  1  3  1  0
  2 20  2  0
  3  8  1  0
  3  5  1  0
  5 11  1  0
  5 12  1  0
  6  4  1  0
  7  1  1  0
  9  7  2  0
 11  6  1  0
 12 16  1  0
 13 12  2  0
 15 19  1  0
 16  4  1  0
 16 19  1  0
 18 13  1  0
 19 17  1  0
 19 14  1  0
 20 10  1  0
 20  3  1  0
 21  7  1  0
M  END
$$$$

     RDKit          3D

 28 31  0  0  0  0  0  0  0  0999 V2000
   -0.2910   -8.6040   15.6950 C   0  0  0  0  0  0  0  0  0  0  0  0
   -1.0140   -8.8730   18.2660 N   0  0  0  0  0  0  0  0  0  0  0  0
   -1.2890   -9.0860   16.7780 C   0  0  0  0  0  0  0  0  0  0  0  0
   -3.2560  -11.3960   17.7300 C   0  0  0  0  0  0  0  0  0  0  0  0
   -2.8390   -9.9310   21.2390 C   0  0  0  0  0  0  0  0  0  0  0  0
   -1.9430  -10.7980   22.1010 C   0  0  0  0  0  0  0  0  0  0  0  0
   -4.7610  -11.4160   20.2140 C   0  0  0  0  0  0  0  0  0  0  0  0
   -1.5840  -10.4830   16.3360 C   0  0  0  0  0  0  0  0  0  0  0  0
   -3.8710   -9.1450   22.0810 C   0  0  0  0  0  0  0  0  0  0  0  0
   -4.1610  -12.4350   17.2600 C   0  0  0  0  0  0  0  0  0  0  0  0
   -0.5370   -9.5540   14.4410 C   0  0  0  0  0  0  0  0  0  0  0  0
   -2.8430  -11.0420   16.5060 N   0  0  0  0  0  0  0  0  0  0  0  0
   -4.3050  -12.3550   15.8750 C   0  0  0  0  0  0  0  0  0  0  0  0
   -2.2580  -10.9060   23.3780 O   0  0  0  0  0  0  0  0  0  0  0  0
   -0.8010  -11.2250   21.8320 O   0  0  0  0  0  0  0  0  0  0  0  0
   -0.2820   -6.4340   18.3120 C   0  0  0  0  0  0  0  0  0  0  0  0
    0.5460   -8.3370   12.7120 C   0  0  0  0  0  0  0  0  0  0  0  0
   -3.4910  -10.7320   20.1560 N   0  0  0  0  0  0  0  0  0  0  0  0
   -1.3180  -10.5600   14.8850 N   0  0  0  0  0  0  0  0  0  0  0  0
   -3.4960  -11.5410   15.3650 N   0  0  0  0  0  0  0  0  0  0  0  0
   -5.2430  -13.1810   15.1300 C   0  0  0  0  0  0  0  0  0  0  0  0
   -1.8910   -8.9470   20.6330 C   0  0  0  0  0  0  0  0  0  0  0  0
   -5.0620  -12.1280   21.5010 C   0  0  0  0  0  0  0  0  0  0  0  0
   -2.7610  -10.6360   18.9380 C   0  0  0  0  0  0  0  0  0  0  0  0
    0.0660   -7.8680   18.6340 C   0  0  0  0  0  0  0  0  0  0  0  0
   -0.1550   -9.5610   13.0700 N   0  0  0  0  0  0  0  0  0  0  0  0
   -1.8930   -9.4920   19.1970 C   0  0  0  0  0  0  0  0  0  0  0  0
   -1.8620   -7.5590   20.7560 O   0  0  0  0  0  0  0  0  0  0  0  0
  2 25  1  0
  2 27  1  0
  3  1  1  0
  3  2  1  0
  4 24  2  0
  5  9  1  0
  5  6  1  0
  6 14  1  0
  7 23  1  0
  8 19  1  0
  8 12  1  0
  8  3  1  0
 10  4  1  0
 11 19  2  0
 11  1  1  0
 12  4  1  0
 13 10  1  0
 15  6  2  0
 16 25  1  0
 17 26  1  0
 18  7  1  0
 18  5  1  0
 20 13  2  0
 20 12  1  0
 21 13  1  0
 22 28  1  0
 22  5  1  0
 24 18  1  0
 26 11  1  0
 27 24  1  0
 27 22  1  0
M  END
$$$$

     RDKit          3D

 31 35  0  0  0  0  0  0  0  0999 V2000
    4.7410   -9.2200    5.8780 C   0  0  0  0  0  0  0  0  0  0  0  0
   -2.5370  -11.0770   18.0540 C   0  0  0  0  0  0  0  0  0  0  0  0
   -0.7890   -9.2270   17.9350 C   0  0  0  0  0  0  0  0  0  0  0  0
   -0.5640   -9.6850   15.5450 C   0  0  0  0  0  0  0  0  0  0  0  0
    4.1630   -7.9680    9.0840 O   0  0  0  0  0  0  0  0  0  0  0  0
    1.5430   -7.9370   12.0870 C   0  0  0  0  0  0  0  0  0  0  0  0
    0.8380   -7.9830   16.7270 C   0  0  0  0  0  0  0  0  0  0  0  0
    1.6780   -9.8440   10.2400 N   0  0  0  0  0  0  0  0  0  0  0  0
   -0.9350  -10.1760   14.3620 N   0  0  0  0  0  0  0  0  0  0  0  0
   -4.6760  -12.5240   16.0670 C   0  0  0  0  0  0  0  0  0  0  0  0
   -1.0480   -9.9740   16.8180 C   0  0  0  0  0  0  0  0  0  0  0  0
   -3.5960  -12.2860   15.3100 C   0  0  0  0  0  0  0  0  0  0  0  0
   -2.7400  -11.6430   14.8720 N   0  0  0  0  0  0  0  0  0  0  0  0
    3.7240   -9.9510    6.7280 C   0  0  0  0  0  0  0  0  0  0  0  0
    2.4930   -8.8150   10.1040 C   0  0  0  0  0  0  0  0  0  0  0  0
   -2.2870  -11.4720   15.8160 C   0  0  0  0  0  0  0  0  0  0  0  0
   -3.6510  -11.3890   17.8700 C   0  0  0  0  0  0  0  0  0  0  0  0
   -2.1140  -10.9540   16.8930 C   0  0  0  0  0  0  0  0  0  0  0  0
   -5.7240  -12.1170   18.0780 F   0  0  0  0  0  0  0  0  0  0  0  0
    2.4080   -7.7160   11.0190 C   0  0  0  0  0  0  0  0  0  0  0  0
   -0.3560   -9.9440   12.0090 C   0  0  0  0  0  0  0  0  0  0  0  0
    0.5050   -8.5210   15.5540 C   0  0  0  0  0  0  0  0  0  0  0  0
    0.2490   -9.9280   13.4720 C   0  0  0  0  0  0  0  0  0  0  0  0
   -4.6120  -11.8950   17.3490 C   0  0  0  0  0  0  0  0  0  0  0  0
    3.6090   -9.7790    8.0680 N   0  0  0  0  0  0  0  0  0  0  0  0
    0.6540   -9.1540   12.3030 C   0  0  0  0  0  0  0  0  0  0  0  0
    0.6690   -9.8000   11.2110 N   0  0  0  0  0  0  0  0  0  0  0  0
    3.6160   -8.9200    9.0500 C   0  0  0  0  0  0  0  0  0  0  0  0
    4.6450   -9.2970    4.4000 C   0  0  0  0  0  0  0  0  0  0  0  0
    2.8060  -10.7430    6.2520 O   0  0  0  0  0  0  0  0  0  0  0  0
    0.1170   -8.2400   17.9080 C   0  0  0  0  0  0  0  0  0  0  0  0
  1 14  1  0
  4 22  4  0
  4 11  4  0
  7 31  4  0
  8 27  1  0
  9  4  1  0
 10 24  1  0
 11  3  4  0
 12 10  1  0
 13 12  1  0
 13 16  1  0
 14 25  1  0
 15  8  2  0
 15 20  1  0
 16 18  1  0
 17  2  1  0
 18 11  1  0
 18  2  1  0
 20  6  1  0
 21 27  1  0
 21 26  1  0
 21 23  1  0
 22  7  4  0
 23  9  1  0
 24 17  1  0
 24 19  1  0
 25 28  1  0
 26  6  1  0
 26 23  1  0
 27 26  1  0
 28  5  2  0
 28 15  1  0
 29  1  1  0
 30 14  2  0
 31  3  4  0
M  END
$$$$

     RDKit          3D

 31 34  0  0  0  0  0  0  0  0999 V2000
    0.3770   -9.4470   23.2780 O   0  0  0  0  0  0  0  0  0  0  0  0
   -3.7980  -12.0880   17.4630 C   0  0  0  0  0  0  0  0  0  0  0  0
   -0.6710   -9.5290   13.9900 C   0  0  0  0  0  0  0  0  0  0  0  0
   -3.7320  -11.1320   19.7720 N   0  0  0  0  0  0  0  0  0  0  0  0
   -3.4560  -10.8450   22.0940 C   0  0  0  0  0  0  0  0  0  0  0  0
   -3.8040  -11.6050   14.7460 C   0  0  0  0  0  0  0  0  0  0  0  0
   -5.4530  -11.9340   21.3120 N   0  0  0  0  0  0  0  0  0  0  0  0
   -1.3200   -9.9020   16.3450 N   0  0  0  0  0  0  0  0  0  0  0  0
   -4.9680  -11.6240   20.2200 C   0  0  0  0  0  0  0  0  0  0  0  0
    0.7350   -7.6940   13.4630 C   0  0  0  0  0  0  0  0  0  0  0  0
    0.2830   -9.1760   11.7870 O   0  0  0  0  0  0  0  0  0  0  0  0
   -0.8220   -9.7450   22.5950 C   0  0  0  0  0  0  0  0  0  0  0  0
   -1.7850  -10.5180   20.4740 C   0  0  0  0  0  0  0  0  0  0  0  0
   -1.7540  -10.4700   19.1570 O   0  0  0  0  0  0  0  0  0  0  0  0
   -0.7560   -9.2270   15.3270 C   0  0  0  0  0  0  0  0  0  0  0  0
    0.6450   -7.2810   14.7830 C   0  0  0  0  0  0  0  0  0  0  0  0
   -1.5570   -9.2050   24.7310 O   0  0  0  0  0  0  0  0  0  0  0  0
   -2.0560   -9.3390   23.3800 C   0  0  0  0  0  0  0  0  0  0  0  0
   -3.0640  -10.8530   20.8660 C   0  0  0  0  0  0  0  0  0  0  0  0
   -0.0790   -7.5880   17.0940 C   0  0  0  0  0  0  0  0  0  0  0  0
   -3.1490  -10.3890   23.2780 C   0  0  0  0  0  0  0  0  0  0  0  0
   -2.8580  -10.8270   18.6820 C   0  0  0  0  0  0  0  0  0  0  0  0
   -2.9580  -10.7970   15.1460 N   0  0  0  0  0  0  0  0  0  0  0  0
   -0.0520   -8.0700   15.7120 C   0  0  0  0  0  0  0  0  0  0  0  0
   -4.1720  -13.0740   16.5060 C   0  0  0  0  0  0  0  0  0  0  0  0
   -2.4200  -10.7240   16.3310 C   0  0  0  0  0  0  0  0  0  0  0  0
   -4.2710  -12.6900   15.2610 C   0  0  0  0  0  0  0  0  0  0  0  0
   -3.0450  -11.1990   17.4490 C   0  0  0  0  0  0  0  0  0  0  0  0
    1.3970   -6.1420   15.2290 C   0  0  0  0  0  0  0  0  0  0  0  0
    0.1120   -8.7570   13.0730 C   0  0  0  0  0  0  0  0  0  0  0  0
   -0.7350  -10.2520   21.3680 C   0  0  0  0  0  0  0  0  0  0  0  0
  3 15  4  0
  4  9  1  0
  4 19  1  0
  5 21  2  0
  6 23  1  0
  6 27  1  0
  9  7  2  0
 10 16  4  0
 11 30  1  0
 12  1  1  0
 12 18  1  0
 13 19  2  0
 13 31  1  0
 14 13  1  0
 15 24  4  0
 15  8  1  0
 16 29  1  0
 16 24  4  0
 18 17  1  0
 19  5  1  0
 21 18  1  0
 22 28  1  0
 22 14  1  0
 22  4  1  0
 23 26  2  0
 24 20  1  0
 25  2  1  0
 26  8  1  0
 26 28  1  0
 27 25  1  0
 28  2  2  0
 30 10  4  0
 30  3  4  0
 31 12  2  0
M  END
$$$$

     RDKit          3D

 25 27  0  0  0  0  0  0  0  0999 V2000
   -2.7110  -12.7370   16.3470 N   0  0  0  0  0  0  0  0  0  0  0  0
   -0.2700   -8.7710   13.9520 C   0  0  0  0  0  0  0  0  0  0  0  0
   -1.4720   -9.9230   16.0590 C   0  0  0  0  0  0  0  0  0  0  0  0
    0.2750   -8.1160   12.8980 O   0  0  0  0  0  0  0  0  0  0  0  0
   -3.1080  -12.0830   23.8400 F   0  0  0  0  0  0  0  0  0  0  0  0
   -2.1210  -10.3910   17.2100 N   0  0  0  0  0  0  0  0  0  0  0  0
   -0.6750  -10.6890   22.9720 Cl  0  0  0  0  0  0  0  0  0  0  0  0
   -3.2330  -11.2430   22.9360 C   0  0  0  0  0  0  0  0  0  0  0  0
   -3.9290  -13.3980   15.9040 C   0  0  0  0  0  0  0  0  0  0  0  0
   -4.5860  -10.7400   22.5450 C   0  0  0  0  0  0  0  0  0  0  0  0
   -5.5100  -12.1210   20.8390 F   0  0  0  0  0  0  0  0  0  0  0  0
    0.6790   -8.9850   11.8330 C   0  0  0  0  0  0  0  0  0  0  0  0
   -2.2340  -10.5080   20.8860 C   0  0  0  0  0  0  0  0  0  0  0  0
   -0.7440   -8.8340   16.3350 C   0  0  0  0  0  0  0  0  0  0  0  0
   -2.9930  -11.5570   17.0970 C   0  0  0  0  0  0  0  0  0  0  0  0
   -0.0770   -8.1550   15.2310 C   0  0  0  0  0  0  0  0  0  0  0  0
   -1.5090   -9.3960   18.2630 C   0  0  0  0  0  0  0  0  0  0  0  0
   -4.2170  -11.5590   17.9400 C   0  0  0  0  0  0  0  0  0  0  0  0
   -0.9780   -9.9550   13.8330 C   0  0  0  0  0  0  0  0  0  0  0  0
   -1.5690  -10.5600   14.8570 N   0  0  0  0  0  0  0  0  0  0  0  0
   -4.8370  -10.8280   21.0990 C   0  0  0  0  0  0  0  0  0  0  0  0
   -0.8060   -8.4140   17.8920 C   0  0  0  0  0  0  0  0  0  0  0  0
   -2.1650  -10.8340   22.2040 C   0  0  0  0  0  0  0  0  0  0  0  0
   -3.5490  -10.8330   20.2080 C   0  0  0  0  0  0  0  0  0  0  0  0
   -4.0020  -10.3230   18.8840 N   0  0  0  0  0  0  0  0  0  0  0  0
  1 15  1  0
  2 16  4  0
  3 14  4  0
  3  6  4  0
  4  2  1  0
  6 17  4  0
  8  5  1  0
  9  1  1  0
 10  8  1  0
 12  4  1  0
 13 23  2  0
 14 22  4  0
 15  6  1  0
 15 18  1  0
 16 14  4  0
 18 25  1  0
 19  2  4  0
 19 20  4  0
 20  3  4  0
 21 11  1  0
 21 10  1  0
 22 17  4  0
 23  8  1  0
 23  7  1  0
 24 25  1  0
 24 13  1  0
 24 21  1  0
M  END
$$$$

     RDKit          3D

 28 32  0  0  0  0  0  0  0  0999 V2000
    0.5760   -7.4670   15.5920 C   0  0  0  0  0  0  0  0  0  0  0  0
   -5.0130  -11.8330   20.8530 C   0  0  0  0  0  0  0  0  0  0  0  0
    0.1320   -7.7770   18.5200 O   0  0  0  0  0  0  0  0  0  0  0  0
   -2.0490  -10.2860   17.2990 C   0  0  0  0  0  0  0  0  0  0  0  0
   -0.1130   -8.4230   16.2580 C   0  0  0  0  0  0  0  0  0  0  0  0
   -4.5630  -11.4650   22.0720 C   0  0  0  0  0  0  0  0  0  0  0  0
   -0.8480   -9.2780   15.4040 C   0  0  0  0  0  0  0  0  0  0  0  0
   -3.8090  -11.9630   17.0080 C   0  0  0  0  0  0  0  0  0  0  0  0
   -3.5890  -11.9560   15.6740 C   0  0  0  0  0  0  0  0  0  0  0  0
   -2.6350  -11.1610   15.1300 C   0  0  0  0  0  0  0  0  0  0  0  0
   -0.0700   -9.6260   21.5300 O   0  0  0  0  0  0  0  0  0  0  0  0
   -3.3240  -10.8860   22.3480 C   0  0  0  0  0  0  0  0  0  0  0  0
   -2.2880  -10.5920   21.4480 C   0  0  0  0  0  0  0  0  0  0  0  0
   -3.0320  -11.1240   17.7790 C   0  0  0  0  0  0  0  0  0  0  0  0
   -1.2610   -9.5790   18.1670 N   0  0  0  0  0  0  0  0  0  0  0  0
    0.3380   -5.9110   12.4330 N   0  0  0  0  0  0  0  0  0  0  0  0
   -1.3250   -9.8630   19.4560 N   0  0  0  0  0  0  0  0  0  0  0  0
   -0.4040   -8.7030   14.1090 C   0  0  0  0  0  0  0  0  0  0  0  0
   -1.7890  -10.2780   15.9160 C   0  0  0  0  0  0  0  0  0  0  0  0
    0.4770   -6.4930   13.3340 C   0  0  0  0  0  0  0  0  0  0  0  0
   -0.3100   -8.5410   17.7030 C   0  0  0  0  0  0  0  0  0  0  0  0
   -2.3430  -10.5200   20.0600 C   0  0  0  0  0  0  0  0  0  0  0  0
   -3.2930  -11.1000   19.2200 C   0  0  0  0  0  0  0  0  0  0  0  0
    0.3070   -7.6150   14.2270 C   0  0  0  0  0  0  0  0  0  0  0  0
   -1.0740  -10.9830   23.0970 O   0  0  0  0  0  0  0  0  0  0  0  0
   -2.4660  -11.2280   13.9120 O   0  0  0  0  0  0  0  0  0  0  0  0
   -4.4730  -11.7190   19.6300 C   0  0  0  0  0  0  0  0  0  0  0  0
   -1.0210  -10.4870   22.0580 C   0  0  0  0  0  0  0  0  0  0  0  0
  2  6  2  0
  4 14  2  0
  4 15  1  0
  5  1  1  0
  5 21  1  0
  6 12  1  0
  7 19  1  0
  7  5  1  0
  8 14  1  0
  9  8  2  0
 10  9  1  0
 11 28  2  0
 13 28  1  0
 13 12  1  0
 14 23  1  0
 15 17  1  0
 16 20  3  0
 17 22  2  0
 18 24  1  0
 18  7  2  0
 19 10  1  0
 19  4  1  0
 20 24  1  0
 21 15  1  0
 21  3  2  0
 22 13  1  0
 23 27  2  0
 23 22  1  0
 24  1  2  0
 26 10  2  0
 27  2  1  0
 28 25  1  0
M  END
$$$$

     RDKit          3D

 20 22  0  0  0  0  0  0  0  0999 V2000
   -2.3790  -10.7970   21.6540 C   0  0  0  0  0  0  0  0  0  0  0  0
   -2.0440  -10.6900   22.9880 N   0  0  0  0  0  0  0  0  0  0  0  0
   -3.4500  -12.1410   15.1560 N   0  0  0  0  0  0  0  0  0  0  0  0
   -3.8880  -11.4210   19.7620 N   0  0  0  0  0  0  0  0  0  0  0  0
   -3.0280  -11.2510   16.0050 C   0  0  0  0  0  0  0  0  0  0  0  0
   -1.1110   -9.7960   16.1830 C   0  0  0  0  0  0  0  0  0  0  0  0
   -3.7660  -11.0310   21.1500 C   0  0  0  0  0  0  0  0  0  0  0  0
   -3.4460  -10.8420   18.5860 C   0  0  0  0  0  0  0  0  0  0  0  0
   -4.7030  -10.7750   22.0180 O   0  0  0  0  0  0  0  0  0  0  0  0
   -2.9320   -9.8090   18.5530 O   0  0  0  0  0  0  0  0  0  0  0  0
   -3.5750  -11.4580   17.3360 C   0  0  0  0  0  0  0  0  0  0  0  0
   -4.4070  -12.4970   17.1680 N   0  0  0  0  0  0  0  0  0  0  0  0
   -0.2310  -10.3230   21.7820 C   0  0  0  0  0  0  0  0  0  0  0  0
   -0.5530   -9.4500   13.7640 C   0  0  0  0  0  0  0  0  0  0  0  0
   -4.3030  -12.7130   15.8440 C   0  0  0  0  0  0  0  0  0  0  0  0
   -1.8250  -10.1620   14.1170 C   0  0  0  0  0  0  0  0  0  0  0  0
   -2.1590  -10.2290   15.5040 N   0  0  0  0  0  0  0  0  0  0  0  0
   -1.2680  -10.6100   20.8870 C   0  0  0  0  0  0  0  0  0  0  0  0
   -0.7020  -10.3820   23.0160 N   0  0  0  0  0  0  0  0  0  0  0  0
   -0.2460   -9.2860   15.2480 N   0  0  0  0  0  0  0  0  0  0  0  0
  1  2  2  0
  2 19  1  0
  3 15  1  0
  3  5  2  0
  4  7  1  0
  5 11  1  0
  7  1  1  0
  7  9  2  0
  8  4  1  0
 10  8  2  0
 11  8  1  0
 12 11  2  0
 13 19  2  0
 14 16  4  0
 14 20  4  0
 15 12  1  0
 16 17  4  0
 17  5  1  0
 17  6  4  0
 18  1  1  0
 18 13  1  0
 20  6  4  0
M  END
$$$$

     RDKit          3D

 16 17  0  0  0  0  0  0  0  0999 V2000
   -3.3210  -11.7010   15.9510 C   0  0  0  0  0  0  0  0  0  0  0  0
   -2.9470   -9.0760   20.4600 C   0  0  0  0  0  0  0  0  0  0  0  0
   -2.0950  -10.4020   17.6390 C   0  0  0  0  0  0  0  0  0  0  0  0
   -1.8060  -10.0870   15.1660 N   0  0  0  0  0  0  0  0  0  0  0  0
    0.0280  -10.4830   23.0590 O   0  0  0  0  0  0  0  0  0  0  0  0
   -1.1780  -10.8160   22.6210 C   0  0  0  0  0  0  0  0  0  0  0  0
   -4.2050  -12.7820   16.4630 C   0  0  0  0  0  0  0  0  0  0  0  0
   -0.9560   -8.9860   15.9960 S   0  0  0  0  0  0  0  0  0  0  0  0
   -1.5070  -11.0880   21.1720 C   0  0  0  0  0  0  0  0  0  0  0  0
   -4.1140  -11.6330   18.6820 O   0  0  0  0  0  0  0  0  0  0  0  0
   -1.9150  -10.5650   18.8910 N   0  0  0  0  0  0  0  0  0  0  0  0
   -2.5310  -10.7420   16.3170 C   0  0  0  0  0  0  0  0  0  0  0  0
   -3.8470  -11.8600   17.4010 C   0  0  0  0  0  0  0  0  0  0  0  0
   -1.8040   -9.8410   20.0960 C   0  0  0  0  0  0  0  0  0  0  0  0
   -1.7490   -8.9210   17.6010 C   0  0  0  0  0  0  0  0  0  0  0  0
   -3.3050  -11.7100   14.5190 O   0  0  0  0  0  0  0  0  0  0  0  0
  1 16  1  0
  1 12  1  0
  1  7  1  0
  1 13  1  0
  3 11  1  0
  4  8  1  0
  4 12  2  0
  6  5  1  0
  7 13  1  0
  8 15  1  0
  9  6  1  0
 11 14  1  0
 12  3  1  0
 13 10  1  0
 14  2  1  0
 14  9  1  0
 15  3  1  0
M  END
$$$$

     RDKit          3D

 24 25  0  0  0  0  0  0  0  0999 V2000
   -3.4450  -11.6230   18.2470 C   0  0  0  0  0  0  0  0  0  0  0  0
    0.2190   -9.0970   13.9920 N   0  0  0  0  0  0  0  0  0  0  0  0
   -3.5000  -10.0220   23.4390 C   0  0  0  0  0  0  0  0  0  0  0  0
   -2.6610   -9.7100   21.2320 N   0  0  0  0  0  0  0  0  0  0  0  0
   -1.7790  -10.4180   15.3080 C   0  0  0  0  0  0  0  0  0  0  0  0
   -1.1560   -7.6060   21.9350 O   0  0  0  0  0  0  0  0  0  0  0  0
   -4.7790  -10.4040   20.6850 O   0  0  0  0  0  0  0  0  0  0  0  0
   -1.8040  -10.3970   13.9060 C   0  0  0  0  0  0  0  0  0  0  0  0
   -2.6780  -11.1940   16.0480 C   0  0  0  0  0  0  0  0  0  0  0  0
   -2.3610   -7.7500   22.6190 C   0  0  0  0  0  0  0  0  0  0  0  0
   -2.7560   -9.2700   22.3920 C   0  0  0  0  0  0  0  0  0  0  0  0
   -4.3410  -12.4860   17.7510 C   0  0  0  0  0  0  0  0  0  0  0  0
   -4.4070  -12.6820   16.4070 C   0  0  0  0  0  0  0  0  0  0  0  0
   -1.9970   -7.3470   24.0620 C   0  0  0  0  0  0  0  0  0  0  0  0
   -0.6170   -9.4880   11.9640 N   0  0  0  0  0  0  0  0  0  0  0  0
   -4.2230   -9.5280   24.2570 O   0  0  0  0  0  0  0  0  0  0  0  0
   -3.1350  -11.4170   19.6320 N   0  0  0  0  0  0  0  0  0  0  0  0
   -3.5840  -12.1300   15.5350 N   0  0  0  0  0  0  0  0  0  0  0  0
   -1.0040   -9.5460   15.9650 C   0  0  0  0  0  0  0  0  0  0  0  0
   -3.5610  -10.5120   20.4810 C   0  0  0  0  0  0  0  0  0  0  0  0
   -3.3610  -11.2520   23.5280 O   0  0  0  0  0  0  0  0  0  0  0  0
    0.1260   -9.0110   15.2540 C   0  0  0  0  0  0  0  0  0  0  0  0
   -2.6670  -10.8940   17.4060 C   0  0  0  0  0  0  0  0  0  0  0  0
   -0.7380   -9.6350   13.3300 C   0  0  0  0  0  0  0  0  0  0  0  0
  1 17  1  0
  2 22  1  0
  3 21  2  0
  3 16  1  0
  5 19  1  0
  5  9  1  0
  6 10  1  0
  8  5  1  0
  9 23  4  0
 10 14  1  0
 11  4  1  0
 11 10  1  0
 11  3  1  0
 12  1  4  0
 13 12  4  0
 15 24  1  0
 17 20  1  0
 18  9  4  0
 18 13  4  0
 20  7  2  0
 20  4  1  0
 22 19  1  0
 23  1  4  0
 24  8  1  0
 24  2  2  0
M  END
$$$$

     RDKit          3D

 30 34  0  0  0  0  0  0  0  0999 V2000
   -2.3480   -9.2860   23.0010 C   0  0  0  0  0  0  0  0  0  0  0  0
   -4.1580  -10.9540   22.9160 C   0  0  0  0  0  0  0  0  0  0  0  0
   -0.4490   -8.5450   15.3200 C   0  0  0  0  0  0  0  0  0  0  0  0
   -2.2800   -9.2980   21.5210 C   0  0  0  0  0  0  0  0  0  0  0  0
   -0.5290   -9.9350   13.3170 C   0  0  0  0  0  0  0  0  0  0  0  0
   -3.6120  -11.2590   18.7180 C   0  0  0  0  0  0  0  0  0  0  0  0
   -2.0490  -11.5810   15.7320 C   0  0  0  0  0  0  0  0  0  0  0  0
    0.1170   -9.7860   21.6450 C   0  0  0  0  0  0  0  0  0  0  0  0
   -4.0100  -11.0890   21.5200 C   0  0  0  0  0  0  0  0  0  0  0  0
   -0.9670   -9.6560   14.6460 C   0  0  0  0  0  0  0  0  0  0  0  0
   -3.4200  -11.5360   17.3430 C   0  0  0  0  0  0  0  0  0  0  0  0
   -3.5820   -9.6420   24.9000 O   0  0  0  0  0  0  0  0  0  0  0  0
   -4.6380  -12.1990   15.2350 C   0  0  0  0  0  0  0  0  0  0  0  0
   -0.8520  -12.1780   15.9080 F   0  0  0  0  0  0  0  0  0  0  0  0
   -2.4620  -11.0280   16.7850 N   0  0  0  0  0  0  0  0  0  0  0  0
   -1.4890   -8.6690   23.6440 O   0  0  0  0  0  0  0  0  0  0  0  0
   -2.9960  -10.2900   20.8000 C   0  0  0  0  0  0  0  0  0  0  0  0
   -2.7780  -10.4180   19.4640 C   0  0  0  0  0  0  0  0  0  0  0  0
   -3.3590  -10.0350   23.6320 C   0  0  0  0  0  0  0  0  0  0  0  0
   -0.8810   -9.1560   20.9450 O   0  0  0  0  0  0  0  0  0  0  0  0
    0.3710   -9.0890   12.6790 C   0  0  0  0  0  0  0  0  0  0  0  0
   -4.6840  -11.9930   19.4240 C   0  0  0  0  0  0  0  0  0  0  0  0
   -1.9810  -10.4770   14.9970 N   0  0  0  0  0  0  0  0  0  0  0  0
   -4.1870  -12.5630   16.5280 C   0  0  0  0  0  0  0  0  0  0  0  0
    0.8060   -7.9110   13.3240 C   0  0  0  0  0  0  0  0  0  0  0  0
    1.6700   -7.2160   12.4910 F   0  0  0  0  0  0  0  0  0  0  0  0
   -4.8910  -11.8780   20.7580 C   0  0  0  0  0  0  0  0  0  0  0  0
   -3.1570  -12.4610   15.4040 N   0  0  0  0  0  0  0  0  0  0  0  0
    0.3790   -7.6500   14.6390 C   0  0  0  0  0  0  0  0  0  0  0  0
   -4.9620  -11.7220   23.5860 O   0  0  0  0  0  0  0  0  0  0  0  0
  1 19  1  0
  1 16  2  0
  2 30  1  0
  2 19  1  0
  4 20  1  0
  4  1  1  0
  5 10  4  0
  6 22  4  0
  6 18  4  0
  7 14  1  0
  7 15  1  0
  9  2  1  0
 10 23  1  0
 10  3  4  0
 11  6  1  0
 15 11  2  0
 17  9  4  0
 17  4  1  0
 18 17  4  0
 19 12  1  0
 20  8  1  0
 21  5  4  0
 21 25  4  0
 22 27  4  0
 23  7  1  0
 24 13  1  0
 24 11  1  0
 25 29  4  0
 26 25  1  0
 27  9  4  0
 28 13  1  0
 28  7  1  0
 28 24  1  0
 29  3  4  0
M  END
$$$$

     RDKit          3D

 27 28  0  0  0  0  0  0  0  0999 V2000
   -2.3880  -10.5000   21.1150 C   0  0  0  0  0  0  0  0  0  0  0  0
   -2.4250  -10.9880   16.7450 C   0  0  0  0  0  0  0  0  0  0  0  0
   -4.8440  -13.1280   21.2990 O   0  0  0  0  0  0  0  0  0  0  0  0
   -0.9380  -10.8840   21.1820 C   0  0  0  0  0  0  0  0  0  0  0  0
    0.7520   -8.6870   12.0410 N   0  0  0  0  0  0  0  0  0  0  0  0
   -1.5980   -9.9690   16.2000 N   0  0  0  0  0  0  0  0  0  0  0  0
   -3.3650  -11.2430   19.0200 C   0  0  0  0  0  0  0  0  0  0  0  0
   -0.7100   -9.8940   22.8370 C   0  0  0  0  0  0  0  0  0  0  0  0
   -4.0730  -11.9880   18.2380 C   0  0  0  0  0  0  0  0  0  0  0  0
   -0.9910  -10.1820   14.9920 C   0  0  0  0  0  0  0  0  0  0  0  0
   -3.5460  -11.2990   20.4670 C   0  0  0  0  0  0  0  0  0  0  0  0
   -2.7190   -9.2800   21.9810 C   0  0  0  0  0  0  0  0  0  0  0  0
   -2.8830   -8.4430   20.9820 O   0  0  0  0  0  0  0  0  0  0  0  0
   -4.8370  -11.8190   20.9890 C   0  0  0  0  0  0  0  0  0  0  0  0
    1.6480   -7.7210   12.1920 C   0  0  0  0  0  0  0  0  0  0  0  0
    0.3960   -9.6950   23.7370 O   0  0  0  0  0  0  0  0  0  0  0  0
   -0.3560   -8.9210   13.0630 C   0  0  0  0  0  0  0  0  0  0  0  0
    1.0940   -9.6080   10.8880 C   0  0  0  0  0  0  0  0  0  0  0  0
   -1.2660   -8.9760   22.4330 C   0  0  0  0  0  0  0  0  0  0  0  0
   -3.6270  -11.9730   16.8940 C   0  0  0  0  0  0  0  0  0  0  0  0
   -4.2420  -12.9160   15.8640 C   0  0  0  0  0  0  0  0  0  0  0  0
    1.5150   -7.2330   13.2480 C   0  0  0  0  0  0  0  0  0  0  0  0
   -5.7530  -11.0760   21.0440 O   0  0  0  0  0  0  0  0  0  0  0  0
   -0.7420  -11.2320   22.6910 C   0  0  0  0  0  0  0  0  0  0  0  0
   -0.2720   -9.0710   14.3670 O   0  0  0  0  0  0  0  0  0  0  0  0
   -2.0920  -10.4240   18.3930 S   0  0  0  0  0  0  0  0  0  0  0  0
   -1.2590  -11.2290   14.3820 O   0  0  0  0  0  0  0  0  0  0  0  0
  1 11  1  0
  1  4  1  0
  1 12  1  0
  2 20  4  0
  2 26  4  0
  4 24  1  0
  5 15  1  0
  5 17  1  0
  6  2  1  0
  7 11  1  0
  8 16  1  0
  9  7  4  0
 10  6  1  0
 11 14  1  0
 12 13  1  0
 12 19  1  0
 14 23  2  0
 14  3  1  0
 15 22  1  0
 17 25  1  0
 18  5  1  0
 19  8  1  0
 20  9  4  0
 21 20  1  0
 24  8  1  0
 25 10  1  0
 26  7  4  0
 27 10  2  0
M  END
$$$$

     RDKit          3D

 23 25  0  0  0  0  0  0  0  0999 V2000
   -2.6560  -10.7990   17.3000 C   0  0  0  0  0  0  0  0  0  0  0  0
   -4.2130  -11.4090   19.3220 C   0  0  0  0  0  0  0  0  0  0  0  0
   -3.3300  -10.5890   23.1410 N   0  0  0  0  0  0  0  0  0  0  0  0
   -5.0820  -11.8300   18.5720 O   0  0  0  0  0  0  0  0  0  0  0  0
   -1.8650   -9.9290   16.5990 C   0  0  0  0  0  0  0  0  0  0  0  0
   -0.5090   -8.3980   14.9170 O   0  0  0  0  0  0  0  0  0  0  0  0
    0.3590   -8.9840   12.6170 C   0  0  0  0  0  0  0  0  0  0  0  0
   -1.5390   -9.1940   22.1600 C   0  0  0  0  0  0  0  0  0  0  0  0
   -3.2440  -11.9120   16.7500 C   0  0  0  0  0  0  0  0  0  0  0  0
   -1.6910  -10.3990   15.2770 C   0  0  0  0  0  0  0  0  0  0  0  0
   -2.1130  -11.5040   14.6890 N   0  0  0  0  0  0  0  0  0  0  0  0
   -2.8670  -10.0660   22.0470 C   0  0  0  0  0  0  0  0  0  0  0  0
   -2.9850  -12.2620   15.4610 C   0  0  0  0  0  0  0  0  0  0  0  0
   -3.1110  -10.5270   19.0130 S   0  0  0  0  0  0  0  0  0  0  0  0
   -4.1970  -11.4830   20.7680 C   0  0  0  0  0  0  0  0  0  0  0  0
   -4.6720  -12.1270   21.9070 C   0  0  0  0  0  0  0  0  0  0  0  0
   -4.2680  -11.5900   23.1200 C   0  0  0  0  0  0  0  0  0  0  0  0
   -0.3130  -10.0920   22.1040 C   0  0  0  0  0  0  0  0  0  0  0  0
   -0.8060   -9.5480   14.4900 C   0  0  0  0  0  0  0  0  0  0  0  0
    0.9550   -8.1690   12.0800 N   0  0  0  0  0  0  0  0  0  0  0  0
   -1.4920   -8.0180   22.0070 O   0  0  0  0  0  0  0  0  0  0  0  0
   -0.3540   -9.9370   13.3510 N   0  0  0  0  0  0  0  0  0  0  0  0
   -3.3150  -10.5340   20.8590 C   0  0  0  0  0  0  0  0  0  0  0  0
  2 15  1  0
  4  2  2  0
  5  1  4  0
  7 22  1  0
  9  1  4  0
 10  5  4  0
 11 10  4  0
 11 13  4  0
 12  8  1  0
 12  3  4  0
 13  9  4  0
 14  1  1  0
 14  2  1  0
 14 23  1  0
 15 23  4  0
 15 16  4  0
 16 17  4  0
 17  3  4  0
 18  8  1  0
 19  6  2  0
 19 10  1  0
 20  7  3  0
 21  8  2  0
 22 19  1  0
 23 12  4  0
M  END
$$$$

     RDKit          3D

 24 27  0  0  0  0  0  0  0  0999 V2000
   -0.1290   -9.9890   21.7530 C   0  0  0  0  0  0  0  0  0  0  0  0
   -0.5010   -9.4520   20.4750 C   0  0  0  0  0  0  0  0  0  0  0  0
   -2.1080  -10.1570   16.0800 C   0  0  0  0  0  0  0  0  0  0  0  0
   -0.2860   -7.6070   17.9340 O   0  0  0  0  0  0  0  0  0  0  0  0
   -0.4280   -8.9280   14.1470 C   0  0  0  0  0  0  0  0  0  0  0  0
   -2.9010  -10.8480   16.9140 N   0  0  0  0  0  0  0  0  0  0  0  0
   -3.6570  -11.8040   16.5580 C   0  0  0  0  0  0  0  0  0  0  0  0
   -4.6940  -11.8910   20.8790 C   0  0  0  0  0  0  0  0  0  0  0  0
   -4.5300  -11.7400   22.3150 C   0  0  0  0  0  0  0  0  0  0  0  0
   -1.1890  -10.0730   13.8680 C   0  0  0  0  0  0  0  0  0  0  0  0
   -2.0290   -8.8960   18.7360 N   0  0  0  0  0  0  0  0  0  0  0  0
   -1.7790   -9.5930   19.9570 C   0  0  0  0  0  0  0  0  0  0  0  0
   -1.2710   -9.0680   16.4440 C   0  0  0  0  0  0  0  0  0  0  0  0
   -5.4840  -12.1710   23.0950 F   0  0  0  0  0  0  0  0  0  0  0  0
   -3.6980  -12.1410   15.2430 C   0  0  0  0  0  0  0  0  0  0  0  0
   -2.0480  -10.6820   14.8180 C   0  0  0  0  0  0  0  0  0  0  0  0
   -1.1370   -8.4590   17.7140 C   0  0  0  0  0  0  0  0  0  0  0  0
   -3.4050  -11.1880   22.8940 C   0  0  0  0  0  0  0  0  0  0  0  0
   -0.5650   -8.3990   15.3900 C   0  0  0  0  0  0  0  0  0  0  0  0
   -2.9200  -11.6140   14.4120 N   0  0  0  0  0  0  0  0  0  0  0  0
   -3.8000  -11.2130   20.0600 C   0  0  0  0  0  0  0  0  0  0  0  0
   -2.6900  -10.4140   20.6400 C   0  0  0  0  0  0  0  0  0  0  0  0
   -1.1120  -10.5920   22.5090 C   0  0  0  0  0  0  0  0  0  0  0  0
   -2.4020  -10.6950   22.0270 C   0  0  0  0  0  0  0  0  0  0  0  0
  1 23  4  0
  2  1  4  0
  3 13  1  0
  3  6  4  0
  5 19  2  0
  7  6  4  0
  8  9  4  0
  9 18  4  0
  9 14  1  0
 10  5  1  0
 10 16  1  0
 11 12  1  0
 12  2  4  0
 12 22  4  0
 13 17  1  0
 15  7  4  0
 16  3  4  0
 17  4  2  0
 17 11  1  0
 19 13  1  0
 20 16  4  0
 20 15  4  0
 21 22  4  0
 21  8  4  0
 22 24  4  0
 24 23  4  0
 24 18  4  0
M  END
$$$$
