
     RDKit          3D

 24 27  0  0  0  0  0  0  0  0999 V2000
   -0.9650   -8.5030   16.8760 C   0  0  0  0  0  0  0  0  0  0  0  0
   -1.9210   -8.9360   21.8630 C   0  0  0  0  0  0  0  0  0  0  0  0
   -0.5960   -9.2070   14.2050 C   0  0  0  0  0  0  0  0  0  0  0  0
   -4.7410  -10.7390   21.0700 C   0  0  0  0  0  0  0  0  0  0  0  0
   -3.1150  -11.2150   19.2150 N   0  0  0  0  0  0  0  0  0  0  0  0
   -3.0330  -11.5370   14.2640 N   0  0  0  0  0  0  0  0  0  0  0  0
   -1.0150  -11.2490   21.4620 C   0  0  0  0  0  0  0  0  0  0  0  0
   -2.3750  -11.3370   21.8040 C   0  0  0  0  0  0  0  0  0  0  0  0
   -2.5910   -9.9650   22.6730 C   0  0  0  0  0  0  0  0  0  0  0  0
   -2.5050  -10.7290   15.0490 C   0  0  0  0  0  0  0  0  0  0  0  0
   -2.8780  -10.0650   23.6640 O   0  0  0  0  0  0  0  0  0  0  0  0
   -5.5920  -11.8980   20.9910 N   0  0  0  0  0  0  0  0  0  0  0  0
   -1.7160   -9.5810   16.4280 C   0  0  0  0  0  0  0  0  0  0  0  0
   -4.4920  -12.2090   16.0400 C   0  0  0  0  0  0  0  0  0  0  0  0
   -4.0150  -11.5560   18.3830 C   0  0  0  0  0  0  0  0  0  0  0  0
   -1.5130   -7.5520   22.6830 C   0  0  0  0  0  0  0  0  0  0  0  0
   -3.7250  -11.4120   16.9480 C   0  0  0  0  0  0  0  0  0  0  0  0
    0.2000   -8.1680   14.7990 C   0  0  0  0  0  0  0  0  0  0  0  0
   -1.5000   -9.7860   15.0090 C   0  0  0  0  0  0  0  0  0  0  0  0
   -4.0320  -12.0980   14.8440 C   0  0  0  0  0  0  0  0  0  0  0  0
   -3.3270  -11.1420   20.7070 C   0  0  0  0  0  0  0  0  0  0  0  0
   -0.0250   -7.8600   16.1030 C   0  0  0  0  0  0  0  0  0  0  0  0
   -0.2490   -9.9230   21.9060 S   0  0  0  0  0  0  0  0  0  0  0  0
   -2.7230  -10.6270   16.3880 N   0  0  0  0  0  0  0  0  0  0  0  0
  2 23  1  0
  2  9  1  0
  2 16  1  0
  3 18  4  0
  3 19  4  0
  5 21  1  0
  6 20  1  0
  6 10  2  0
  7  8  1  0
  7 23  1  0
  8 21  1  0
  8  9  1  0
  9 11  2  0
 10 24  1  0
 12  4  1  0
 13  1  4  0
 14 17  1  0
 15  5  2  3
 17 15  1  0
 18 22  4  0
 19 10  1  0
 19 13  4  0
 20 14  2  0
 21  4  1  0
 22  1  4  0
 24 13  1  0
 24 17  1  0
M  END
$$$$

     RDKit          3D

 19 20  0  0  0  0  0  0  0  0999 V2000
   -3.9520  -10.9100   18.4580 N   0  0  0  0  0  0  0  0  0  0  0  0
   -2.5170  -11.8340   14.4880 N   0  0  0  0  0  0  0  0  0  0  0  0
   -4.7860  -11.6050   22.0590 C   0  0  0  0  0  0  0  0  0  0  0  0
   -1.4640  -10.2960   15.7540 C   0  0  0  0  0  0  0  0  0  0  0  0
   -0.9620  -10.8350   22.1910 C   0  0  0  0  0  0  0  0  0  0  0  0
   -3.9350  -11.1060   19.8300 C   0  0  0  0  0  0  0  0  0  0  0  0
   -2.6080  -10.8610   20.3810 C   0  0  0  0  0  0  0  0  0  0  0  0
   -0.9720  -10.3370   13.2420 C   0  0  0  0  0  0  0  0  0  0  0  0
   -1.6340  -10.8040   14.4290 N   0  0  0  0  0  0  0  0  0  0  0  0
   -3.5380  -11.2610   22.5880 C   0  0  0  0  0  0  0  0  0  0  0  0
   -3.1630  -10.5390   17.6090 N   0  0  0  0  0  0  0  0  0  0  0  0
   -0.4010   -9.4230   16.1290 C   0  0  0  0  0  0  0  0  0  0  0  0
   -3.8010  -13.1860   16.2110 C   0  0  0  0  0  0  0  0  0  0  0  0
   -3.0050  -12.0070   15.6630 C   0  0  0  0  0  0  0  0  0  0  0  0
   -0.0450   -9.7570   21.8680 O   0  0  0  0  0  0  0  0  0  0  0  0
   -0.8910  -10.8280   23.4720 O   0  0  0  0  0  0  0  0  0  0  0  0
   -2.3820  -10.9660   21.7400 C   0  0  0  0  0  0  0  0  0  0  0  0
   -2.5460  -10.9080   16.4600 C   0  0  0  0  0  0  0  0  0  0  0  0
   -5.0040  -11.5640   20.6370 C   0  0  0  0  0  0  0  0  0  0  0  0
  1  6  1  0
  2 14  2  0
  3 10  4  0
  4 12  1  0
  4 18  1  0
  5 16  1  0
  6  7  4  0
  6 19  4  0
  7 17  4  0
  8  9  1  0
  9  2  1  0
  9  4  1  0
 11  1  1  0
 14 13  1  0
 14 18  1  0
 15  5  1  0
 17  5  1  0
 17 10  4  0
 18 11  1  0
 19  3  4  0
M  END
$$$$

     RDKit          3D

 31 34  0  0  0  0  0  0  0  0999 V2000
   -0.8790   -7.2230   23.2570 C   0  0  0  0  0  0  0  0  0  0  0  0
   -0.4310   -7.9820   24.2920 C   0  0  0  0  0  0  0  0  0  0  0  0
   -1.5170   -5.9620   23.5670 O   0  0  0  0  0  0  0  0  0  0  0  0
   -0.0740   -8.7460   13.4420 C   0  0  0  0  0  0  0  0  0  0  0  0
   -3.0500  -10.4980   19.5350 C   0  0  0  0  0  0  0  0  0  0  0  0
   -2.3890  -10.6050   13.5380 O   0  0  0  0  0  0  0  0  0  0  0  0
    0.3900  -10.1240   13.9130 C   0  0  0  0  0  0  0  0  0  0  0  0
   -3.1820  -10.9930   18.0800 C   0  0  0  0  0  0  0  0  0  0  0  0
   -0.5570  -10.6760   14.8480 N   0  0  0  0  0  0  0  0  0  0  0  0
   -1.8200  -10.7770   14.6210 C   0  0  0  0  0  0  0  0  0  0  0  0
   -2.5430  -10.9520   20.9070 C   0  0  0  0  0  0  0  0  0  0  0  0
    0.3070   -8.7710   11.0270 O   0  0  0  0  0  0  0  0  0  0  0  0
   -3.1490  -11.3600   23.1490 O   0  0  0  0  0  0  0  0  0  0  0  0
   -3.9440  -11.8370   15.5490 C   0  0  0  0  0  0  0  0  0  0  0  0
   -4.4570  -12.0090   14.3240 O   0  0  0  0  0  0  0  0  0  0  0  0
   -3.8520  -11.5800   20.2820 C   0  0  0  0  0  0  0  0  0  0  0  0
   -1.3980  -11.8420   21.1510 C   0  0  0  0  0  0  0  0  0  0  0  0
   -0.1200   -9.4150   23.9720 C   0  0  0  0  0  0  0  0  0  0  0  0
   -2.7040  -11.1720   15.7670 C   0  0  0  0  0  0  0  0  0  0  0  0
   -1.8700   -7.1250   21.0160 O   0  0  0  0  0  0  0  0  0  0  0  0
   -3.0640  -10.2130   22.1870 C   0  0  0  0  0  0  0  0  0  0  0  0
   -0.8620  -10.0180   22.9900 C   0  0  0  0  0  0  0  0  0  0  0  0
   -2.6900   -9.0440   19.4510 N   0  0  0  0  0  0  0  0  0  0  0  0
   -1.8320   -9.2450   22.4030 C   0  0  0  0  0  0  0  0  0  0  0  0
   -4.2030  -11.9140   17.9060 C   0  0  0  0  0  0  0  0  0  0  0  0
   -4.5960  -12.3590   16.6330 C   0  0  0  0  0  0  0  0  0  0  0  0
    1.2000   -6.9470   12.4000 C   0  0  0  0  0  0  0  0  0  0  0  0
   -1.4170   -7.8500   22.1190 C   0  0  0  0  0  0  0  0  0  0  0  0
   -2.3880  -10.6760   17.0580 C   0  0  0  0  0  0  0  0  0  0  0  0
    0.8340   -8.3850   12.2690 C   0  0  0  0  0  0  0  0  0  0  0  0
   -0.5190  -11.4220   22.3920 C   0  0  0  0  0  0  0  0  0  0  0  0
  1  3  1  0
  1  2  4  0
  4  7  1  0
  5 23  1  0
  5 16  1  0
  5 11  1  0
  6 10  2  0
  7  9  1  0
  8  5  1  0
 10  9  1  0
 10 19  1  0
 11 16  1  0
 11 17  1  0
 11 21  1  0
 12 30  1  0
 14 19  4  0
 14 26  4  0
 15 14  1  0
 17 31  1  0
 18  2  4  0
 19 29  4  0
 20 28  1  0
 21 24  1  0
 21 13  1  0
 22 18  4  0
 24 22  4  0
 25  8  4  0
 26 25  4  0
 28 24  4  0
 28  1  4  0
 29  8  4  0
 30 27  1  0
 30  4  1  0
 31 22  1  0
M  END
$$$$

     RDKit          3D

 31 33  0  0  0  0  0  0  0  0999 V2000
   -1.5720   -9.7950   15.9040 C   0  0  0  0  0  0  0  0  0  0  0  0
   -3.8440  -12.8120   14.9680 O   0  0  0  0  0  0  0  0  0  0  0  0
   -4.8100  -11.6470   21.5840 C   0  0  0  0  0  0  0  0  0  0  0  0
   -0.5310  -11.4430   22.9280 O   0  0  0  0  0  0  0  0  0  0  0  0
   -0.2030   -8.6340   14.1050 N   0  0  0  0  0  0  0  0  0  0  0  0
   -0.6420   -9.2090   16.4770 C   0  0  0  0  0  0  0  0  0  0  0  0
    1.3770   -6.7400   14.3630 C   0  0  0  0  0  0  0  0  0  0  0  0
   -3.8130  -11.2270   19.4400 C   0  0  0  0  0  0  0  0  0  0  0  0
   -4.6290  -12.9130   16.1690 C   0  0  0  0  0  0  0  0  0  0  0  0
   -2.1310  -10.8330   14.9320 C   0  0  0  0  0  0  0  0  0  0  0  0
   -2.4230  -11.0200   21.4420 C   0  0  0  0  0  0  0  0  0  0  0  0
    1.4880   -6.3050   13.0600 N   0  0  0  0  0  0  0  0  0  0  0  0
    1.7790   -6.9490   10.7200 C   0  0  0  0  0  0  0  0  0  0  0  0
    0.4850   -7.7910   14.7340 C   0  0  0  0  0  0  0  0  0  0  0  0
    2.0590   -5.9050   15.3080 O   0  0  0  0  0  0  0  0  0  0  0  0
   -3.5950  -11.3530   22.2410 C   0  0  0  0  0  0  0  0  0  0  0  0
   -6.0160  -12.1660   22.3280 C   0  0  0  0  0  0  0  0  0  0  0  0
   -3.6270  -11.3230   23.7010 C   0  0  0  0  0  0  0  0  0  0  0  0
   -3.6050  -11.3140   14.6730 C   0  0  0  0  0  0  0  0  0  0  0  0
   -2.5660  -10.9710   20.0290 C   0  0  0  0  0  0  0  0  0  0  0  0
    0.2120   -7.7570   16.5470 S   0  0  0  0  0  0  0  0  0  0  0  0
   -1.6560  -10.5070   13.5970 N   0  0  0  0  0  0  0  0  0  0  0  0
   -0.9540  -10.7940   22.0210 C   0  0  0  0  0  0  0  0  0  0  0  0
   -3.6830  -12.4520   17.3000 C   0  0  0  0  0  0  0  0  0  0  0  0
   -0.7290   -9.4100   13.5260 C   0  0  0  0  0  0  0  0  0  0  0  0
   -3.6810  -11.4030   24.8220 N   0  0  0  0  0  0  0  0  0  0  0  0
   -4.8550  -11.6400   20.2060 C   0  0  0  0  0  0  0  0  0  0  0  0
   -3.9080  -11.0960   17.9280 C   0  0  0  0  0  0  0  0  0  0  0  0
   -0.2330   -9.9510   21.4680 O   0  0  0  0  0  0  0  0  0  0  0  0
    1.7810   -5.7850   11.7260 C   0  0  0  0  0  0  0  0  0  0  0  0
   -0.0590   -8.8140   12.8410 C   0  0  0  0  0  0  0  0  0  0  0  0
  1  6  1  0
  2  9  1  0
  3 16  4  0
  3 17  1  0
  5 14  1  0
  6 21  1  0
  7 15  2  0
  8 20  4  0
  8 27  4  0
  9 24  1  0
 10 19  1  0
 10  1  1  0
 11 23  1  0
 11 16  4  0
 12  7  1  0
 13 30  1  0
 14  7  1  0
 14 21  1  0
 16 18  1  0
 18 26  3  0
 19  2  1  0
 20 11  4  0
 22 10  1  0
 23  4  1  0
 24 28  1  0
 25 22  2  3
 25  5  1  0
 27  3  4  0
 28  8  1  0
 29 23  2  0
 30 12  1  0
 31 25  1  0
 31  5  1  0
M  END
$$$$

     RDKit          3D

 19 21  0  0  0  0  0  0  0  0999 V2000
   -2.1340   -9.8430   17.9340 N   0  0  0  0  0  0  0  0  0  0  0  0
   -3.2420   -9.2480   20.2110 C   0  0  0  0  0  0  0  0  0  0  0  0
   -1.0030  -11.0500   21.5770 C   0  0  0  0  0  0  0  0  0  0  0  0
   -2.7390  -10.4520   18.5100 C   0  0  0  0  0  0  0  0  0  0  0  0
   -1.1630   -9.5540   15.8480 C   0  0  0  0  0  0  0  0  0  0  0  0
   -1.2470   -9.8750   14.5280 C   0  0  0  0  0  0  0  0  0  0  0  0
   -3.3860  -11.3250   18.8500 C   0  0  0  0  0  0  0  0  0  0  0  0
   -0.4900   -9.5120   23.3960 C   0  0  0  0  0  0  0  0  0  0  0  0
   -2.8670  -11.3150   15.2040 C   0  0  0  0  0  0  0  0  0  0  0  0
   -3.0590  -10.9380   16.4200 C   0  0  0  0  0  0  0  0  0  0  0  0
   -0.1860  -10.9420   22.9220 C   0  0  0  0  0  0  0  0  0  0  0  0
   -3.6990  -11.1710   20.3600 C   0  0  0  0  0  0  0  0  0  0  0  0
   -4.6250  -13.0680   15.3410 C   0  0  0  0  0  0  0  0  0  0  0  0
   -3.0710   -9.9200   20.8310 C   0  0  0  0  0  0  0  0  0  0  0  0
   -1.8270   -9.1220   22.8380 C   0  0  0  0  0  0  0  0  0  0  0  0
   -2.1940  -10.8720   14.0360 C   0  0  0  0  0  0  0  0  0  0  0  0
   -2.0140  -10.2350   16.8700 C   0  0  0  0  0  0  0  0  0  0  0  0
   -1.9310  -10.0140   21.7240 N   0  0  0  0  0  0  0  0  0  0  0  0
   -3.4930  -12.1930   15.7830 C   0  0  0  0  0  0  0  0  0  0  0  0
  1  4  1  0
  2 14  2  0
  3 18  1  0
  3 11  1  0
  4  7  1  0
  5 17  2  0
  6  5  1  0
  7 12  1  0
  9 16  1  0
  9 19  1  0
  9 10  1  0
 10 17  1  0
 11  8  1  0
 12 14  1  0
 14 18  1  0
 15  8  1  0
 16  6  1  0
 17  1  1  0
 18 15  1  0
 19 13  1  0
 19 10  1  0
M  END
$$$$

     RDKit          3D

 24 26  0  0  0  0  0  0  0  0999 V2000
   -0.0140   -7.2190   17.3530 C   0  0  0  0  0  0  0  0  0  0  0  0
   -2.4650  -10.9420   13.9870 C   0  0  0  0  0  0  0  0  0  0  0  0
   -0.2530   -8.0190   16.1040 C   0  0  0  0  0  0  0  0  0  0  0  0
   -4.4270  -12.7010   16.6390 C   0  0  0  0  0  0  0  0  0  0  0  0
   -2.2570   -9.3310   23.8020 N   0  0  0  0  0  0  0  0  0  0  0  0
   -3.3770  -11.7320   14.5880 N   0  0  0  0  0  0  0  0  0  0  0  0
   -4.4020  -10.2220   22.7700 C   0  0  0  0  0  0  0  0  0  0  0  0
   -0.5340   -9.8880   22.2110 S   0  0  0  0  0  0  0  0  0  0  0  0
   -4.8490  -11.7000   20.8730 C   0  0  0  0  0  0  0  0  0  0  0  0
   -2.4510  -11.1000   16.7780 C   0  0  0  0  0  0  0  0  0  0  0  0
   -3.4210  -11.8430   15.9830 C   0  0  0  0  0  0  0  0  0  0  0  0
   -1.9030  -10.6410   19.2310 C   0  0  0  0  0  0  0  0  0  0  0  0
   -2.3140  -11.4070   18.1630 C   0  0  0  0  0  0  0  0  0  0  0  0
   -1.6250  -10.1200   14.6990 C   0  0  0  0  0  0  0  0  0  0  0  0
   -1.4800   -7.1500   17.9660 C   0  0  0  0  0  0  0  0  0  0  0  0
    0.5170   -5.7750   17.3090 C   0  0  0  0  0  0  0  0  0  0  0  0
   -0.8310   -9.2580   16.7770 O   0  0  0  0  0  0  0  0  0  0  0  0
   -2.1460  -10.4530   21.7520 C   0  0  0  0  0  0  0  0  0  0  0  0
   -2.7530  -10.6320   20.4420 C   0  0  0  0  0  0  0  0  0  0  0  0
   -4.1630  -10.6070   20.1610 C   0  0  0  0  0  0  0  0  0  0  0  0
   -2.9180  -10.0730   22.8280 C   0  0  0  0  0  0  0  0  0  0  0  0
   -0.9430   -9.0310   23.5470 C   0  0  0  0  0  0  0  0  0  0  0  0
   -4.7410  -11.5190   22.3230 N   0  0  0  0  0  0  0  0  0  0  0  0
   -1.6260  -10.1070   16.0850 C   0  0  0  0  0  0  0  0  0  0  0  0
  1 15  1  0
  2  6  4  0
  2 14  4  0
  3 17  1  0
  3  1  1  0
  6 11  4  0
  7 21  1  0
  8 22  1  0
  9 23  1  0
 10 13  1  0
 11  4  1  0
 11 10  4  0
 13 12  1  0
 14 24  4  0
 16  1  1  0
 18  8  1  0
 18 21  1  0
 19 12  1  0
 19 18  1  0
 20 19  1  0
 20  9  1  0
 21  5  2  0
 22  5  1  0
 23  7  1  0
 24 17  1  0
 24 10  4  0
M  END
$$$$

     RDKit          3D

 25 29  0  0  0  0  0  0  0  0999 V2000
   -2.0400  -10.7410   16.6910 C   0  0  0  0  0  0  0  0  0  0  0  0
   -2.8030  -10.3120   19.4950 C   0  0  0  0  0  0  0  0  0  0  0  0
   -4.6620  -12.2830   23.2140 C   0  0  0  0  0  0  0  0  0  0  0  0
   -4.6600  -12.3010   20.8720 C   0  0  0  0  0  0  0  0  0  0  0  0
   -2.6940  -11.2030   21.7870 C   0  0  0  0  0  0  0  0  0  0  0  0
   -2.0310   -9.4590   23.6200 N   0  0  0  0  0  0  0  0  0  0  0  0
   -2.4630  -10.4580   23.0430 C   0  0  0  0  0  0  0  0  0  0  0  0
   -0.1690   -9.3260   15.3940 C   0  0  0  0  0  0  0  0  0  0  0  0
   -2.1640   -9.3590   18.6820 C   0  0  0  0  0  0  0  0  0  0  0  0
   -0.7980   -8.6770   16.6040 C   0  0  0  0  0  0  0  0  0  0  0  0
   -1.6790   -9.6170   17.2850 C   0  0  0  0  0  0  0  0  0  0  0  0
   -0.1410   -9.1790   22.3110 C   0  0  0  0  0  0  0  0  0  0  0  0
   -3.9660  -11.8350   21.9160 C   0  0  0  0  0  0  0  0  0  0  0  0
   -2.3410  -11.1560   14.0640 C   0  0  0  0  0  0  0  0  0  0  0  0
   -4.4320  -10.9830   17.2280 C   0  0  0  0  0  0  0  0  0  0  0  0
   -3.6300  -11.2600   14.9800 C   0  0  0  0  0  0  0  0  0  0  0  0
   -0.3800  -10.3140   13.1420 N   0  0  0  0  0  0  0  0  0  0  0  0
   -1.3140  -12.0330   16.4870 C   0  0  0  0  0  0  0  0  0  0  0  0
   -1.9370  -10.0440   20.9410 C   0  0  0  0  0  0  0  0  0  0  0  0
   -4.0070  -10.9050   18.7720 C   0  0  0  0  0  0  0  0  0  0  0  0
   -3.3270  -11.0560   16.5640 C   0  0  0  0  0  0  0  0  0  0  0  0
   -4.9280  -11.9150   19.6610 C   0  0  0  0  0  0  0  0  0  0  0  0
   -0.8060   -9.3980   20.8920 C   0  0  0  0  0  0  0  0  0  0  0  0
   -1.1800  -10.0380   14.3580 C   0  0  0  0  0  0  0  0  0  0  0  0
   -1.0180  -10.0070   23.2170 C   0  0  0  0  0  0  0  0  0  0  0  0
  1 18  1  0
  1 11  1  0
  2  9  1  0
  2 19  1  0
  4 13  1  0
  5 13  1  0
  5  7  1  0
  7 25  1  0
  7  6  1  0
  8 10  1  0
 10 11  1  0
 11  9  2  0
 12 25  1  0
 13  3  1  0
 14 24  1  0
 14 16  1  0
 15 20  1  0
 16 21  1  0
 17 24  1  0
 19  5  1  0
 20  2  1  0
 20 22  2  0
 21  1  1  0
 21 15  1  0
 22  4  1  0
 23 19  1  0
 23 12  1  0
 24  8  1  0
 25  6  1  0
M  END
$$$$

     RDKit          3D

 27 30  0  0  0  0  0  0  0  0999 V2000
   -4.7890  -13.1550   15.2600 N   0  0  0  0  0  0  0  0  0  0  0  0
   -4.0840  -11.6980   18.4000 C   0  0  0  0  0  0  0  0  0  0  0  0
   -4.2500  -12.5140   16.3540 C   0  0  0  0  0  0  0  0  0  0  0  0
   -3.6990   -7.4410   21.5310 C   0  0  0  0  0  0  0  0  0  0  0  0
   -0.7090  -10.3990   16.1020 F   0  0  0  0  0  0  0  0  0  0  0  0
   -2.8240  -11.1700   17.4640 S   0  0  0  0  0  0  0  0  0  0  0  0
   -1.7560   -9.0310   23.4530 C   0  0  0  0  0  0  0  0  0  0  0  0
   -3.5690   -9.6630   20.3850 N   0  0  0  0  0  0  0  0  0  0  0  0
   -1.0410  -10.6010   14.9730 C   0  0  0  0  0  0  0  0  0  0  0  0
   -0.8640   -9.8560   22.6550 C   0  0  0  0  0  0  0  0  0  0  0  0
   -3.0380  -11.8160   16.2060 C   0  0  0  0  0  0  0  0  0  0  0  0
   -4.8140  -12.4130   17.6770 O   0  0  0  0  0  0  0  0  0  0  0  0
   -1.7680  -11.0140   22.5280 C   0  0  0  0  0  0  0  0  0  0  0  0
   -2.9210   -9.5150   22.4780 C   0  0  0  0  0  0  0  0  0  0  0  0
   -0.4990   -9.9240   13.7260 C   0  0  0  0  0  0  0  0  0  0  0  0
   -1.6490   -8.5110   20.5770 C   0  0  0  0  0  0  0  0  0  0  0  0
   -2.9000   -8.6810   21.3210 C   0  0  0  0  0  0  0  0  0  0  0  0
   -5.1770  -10.7020   21.5250 O   0  0  0  0  0  0  0  0  0  0  0  0
   -3.0460  -10.8740   22.9080 C   0  0  0  0  0  0  0  0  0  0  0  0
   -0.2100   -8.6790   13.5350 C   0  0  0  0  0  0  0  0  0  0  0  0
    0.0750   -7.6120   14.1570 N   0  0  0  0  0  0  0  0  0  0  0  0
   -0.6630   -9.0220   12.5790 N   0  0  0  0  0  0  0  0  0  0  0  0
   -0.4210   -9.0830   21.3850 C   0  0  0  0  0  0  0  0  0  0  0  0
   -4.3420  -10.6460   20.3750 C   0  0  0  0  0  0  0  0  0  0  0  0
   -2.5900  -11.6770   15.0510 N   0  0  0  0  0  0  0  0  0  0  0  0
   -4.4230  -11.6900   19.6080 N   0  0  0  0  0  0  0  0  0  0  0  0
   -0.0660  -11.1800   15.4450 O   0  0  0  0  0  0  0  0  0  0  0  0
  1  3  1  0
  2 26  1  0
  3 12  1  0
  6  2  1  0
  8 17  1  0
  9 25  1  0
  9 27  1  0
  9  5  1  0
 10 23  1  0
 10  7  1  0
 11  3  2  0
 11  6  1  0
 12  2  1  0
 13 10  1  0
 13 19  1  0
 14 19  1  0
 14  7  1  0
 15  9  1  0
 16 17  1  0
 16 23  1  0
 17  4  1  0
 17 14  1  0
 20 15  1  0
 20 21  1  0
 22 20  2  0
 22 15  1  0
 24  8  1  0
 24 18  2  0
 25 11  1  0
 26 24  1  0
M  END
$$$$

     RDKit          3D

 21 22  0  0  0  0  0  0  0  0999 V2000
   -4.9660  -11.1040   20.7990 N   0  0  0  0  0  0  0  0  0  0  0  0
   -2.4160   -9.2920   19.4170 C   0  0  0  0  0  0  0  0  0  0  0  0
   -1.1680  -10.4170   13.9570 N   0  0  0  0  0  0  0  0  0  0  0  0
   -3.7460  -11.4220   14.0610 O   0  0  0  0  0  0  0  0  0  0  0  0
   -2.7250  -10.8200   15.9610 C   0  0  0  0  0  0  0  0  0  0  0  0
   -0.8920   -9.1030   15.8790 C   0  0  0  0  0  0  0  0  0  0  0  0
   -4.3270  -12.6410   15.8800 N   0  0  0  0  0  0  0  0  0  0  0  0
   -4.0970  -10.1390   21.0830 C   0  0  0  0  0  0  0  0  0  0  0  0
   -2.8970  -10.4850   17.3240 C   0  0  0  0  0  0  0  0  0  0  0  0
   -4.0880   -9.4680   22.2970 N   0  0  0  0  0  0  0  0  0  0  0  0
   -2.8480  -11.4140   19.7520 O   0  0  0  0  0  0  0  0  0  0  0  0
    0.0230   -9.9990   21.6530 C   0  0  0  0  0  0  0  0  0  0  0  0
   -1.2140   -8.7600   17.2070 C   0  0  0  0  0  0  0  0  0  0  0  0
   -2.3360   -8.1290   19.8830 O   0  0  0  0  0  0  0  0  0  0  0  0
   -3.5990  -11.6750   15.2570 C   0  0  0  0  0  0  0  0  0  0  0  0
   -0.4670   -8.4680   21.5560 C   0  0  0  0  0  0  0  0  0  0  0  0
   -1.6110  -10.1390   15.2340 C   0  0  0  0  0  0  0  0  0  0  0  0
   -3.0350  -10.1780   20.1510 C   0  0  0  0  0  0  0  0  0  0  0  0
   -2.1980   -9.5420   17.9900 C   0  0  0  0  0  0  0  0  0  0  0  0
   -4.2970  -11.9290   19.8080 C   0  0  0  0  0  0  0  0  0  0  0  0
   -1.1460   -7.4770   20.4050 C   0  0  0  0  0  0  0  0  0  0  0  0
  1  8  2  0
  2 14  1  0
  3 17  1  0
  4 15  2  0
  5  9  4  0
  6 13  4  0
  8 10  1  0
  9 19  4  0
 11 20  1  0
 11 18  1  0
 13 19  4  0
 14 21  1  0
 15  7  1  0
 15  5  1  0
 16 12  1  0
 17  6  4  0
 17  5  4  0
 18  2  1  0
 18  8  1  0
 19  2  1  0
 20  1  1  0
 21 16  1  0
M  END
$$$$

     RDKit          3D

 25 27  0  0  0  0  0  0  0  0999 V2000
    1.2610   -8.4150    9.5080 N   0  0  0  0  0  0  0  0  0  0  0  0
    0.9110   -8.6780   10.5380 C   0  0  0  0  0  0  0  0  0  0  0  0
   -0.6680   -8.6410   15.6610 S   0  0  0  0  0  0  0  0  0  0  0  0
   -1.5890  -10.0190   21.0480 C   0  0  0  0  0  0  0  0  0  0  0  0
   -2.3080  -11.0330   14.0870 N   0  0  0  0  0  0  0  0  0  0  0  0
   -1.7990   -9.9200   15.8160 N   0  0  0  0  0  0  0  0  0  0  0  0
   -4.5370  -11.5830   19.1830 N   0  0  0  0  0  0  0  0  0  0  0  0
   -3.8570  -10.9820   20.2080 C   0  0  0  0  0  0  0  0  0  0  0  0
   -0.4010   -9.3120   23.3410 C   0  0  0  0  0  0  0  0  0  0  0  0
   -1.6080  -10.1310   14.5820 C   0  0  0  0  0  0  0  0  0  0  0  0
   -3.2990  -10.8700   22.6780 C   0  0  0  0  0  0  0  0  0  0  0  0
   -0.0970   -9.0970   12.9120 C   0  0  0  0  0  0  0  0  0  0  0  0
   -5.6030  -11.6370   21.6110 O   0  0  0  0  0  0  0  0  0  0  0  0
   -2.6740  -10.3020   19.9280 C   0  0  0  0  0  0  0  0  0  0  0  0
   -0.7660  -10.8000   23.2390 C   0  0  0  0  0  0  0  0  0  0  0  0
   -3.8810  -11.7640   17.9620 C   0  0  0  0  0  0  0  0  0  0  0  0
   -0.7290   -9.2710   13.9960 C   0  0  0  0  0  0  0  0  0  0  0  0
    0.4580   -8.9380   11.8780 C   0  0  0  0  0  0  0  0  0  0  0  0
   -0.0720   -8.8240   24.4020 O   0  0  0  0  0  0  0  0  0  0  0  0
   -0.5350   -8.4380   21.8640 S   0  0  0  0  0  0  0  0  0  0  0  0
   -3.0480  -11.8750   14.9480 C   0  0  0  0  0  0  0  0  0  0  0  0
   -4.3050  -11.1640   21.5510 C   0  0  0  0  0  0  0  0  0  0  0  0
   -3.6480  -12.4570   15.6970 C   0  0  0  0  0  0  0  0  0  0  0  0
   -4.2100  -12.6650   17.0030 C   0  0  0  0  0  0  0  0  0  0  0  0
   -1.8070  -10.6500   22.2290 C   0  0  0  0  0  0  0  0  0  0  0  0
  1  2  3  0
  2 18  1  0
  3  6  1  0
  4 20  1  0
  4 25  4  0
  5 10  1  0
  5 21  1  0
  7  8  1  0
  8 22  4  0
  9 19  2  0
 10  6  2  0
 14  8  4  0
 14  4  4  0
 15  9  1  0
 16  7  1  0
 17 12  1  0
 17 10  1  0
 17  3  1  0
 18 12  3  0
 20  9  1  0
 21 23  1  0
 22 13  1  0
 22 11  4  0
 23 24  2  3
 24 16  1  0
 25 11  4  0
 25 15  1  0
M  END
$$$$

     RDKit          3D

 31 34  0  0  0  0  0  0  0  0999 V2000
   -0.0050   -6.0820   14.5270 C   0  0  0  0  0  0  0  0  0  0  0  0
   -3.5840  -11.3600   17.5100 C   0  0  0  0  0  0  0  0  0  0  0  0
   -4.2430  -11.2070   21.4680 C   0  0  0  0  0  0  0  0  0  0  0  0
   -5.1950  -11.9030   20.8140 N   0  0  0  0  0  0  0  0  0  0  0  0
   -0.1040   -6.4660   15.9350 C   0  0  0  0  0  0  0  0  0  0  0  0
   -1.7680   -8.9560   20.9890 C   0  0  0  0  0  0  0  0  0  0  0  0
   -2.7650  -11.1850   15.3030 C   0  0  0  0  0  0  0  0  0  0  0  0
   -4.8940  -11.8080   19.4750 N   0  0  0  0  0  0  0  0  0  0  0  0
   -1.7590   -8.7160   19.5820 C   0  0  0  0  0  0  0  0  0  0  0  0
   -2.0660  -10.2670   15.4410 N   0  0  0  0  0  0  0  0  0  0  0  0
   -1.9610   -8.1500   22.1350 C   0  0  0  0  0  0  0  0  0  0  0  0
    2.0840   -6.0670   12.9330 C   0  0  0  0  0  0  0  0  0  0  0  0
   -3.4450  -12.0410   14.8630 N   0  0  0  0  0  0  0  0  0  0  0  0
   -1.8780   -9.5230   18.7180 N   0  0  0  0  0  0  0  0  0  0  0  0
   -1.5650  -10.0070   18.5440 O   0  0  0  0  0  0  0  0  0  0  0  0
   -1.1760   -9.7570   14.5050 C   0  0  0  0  0  0  0  0  0  0  0  0
   -1.1860   -7.4540   19.3140 O   0  0  0  0  0  0  0  0  0  0  0  0
   -4.2120  -12.7380   15.6140 C   0  0  0  0  0  0  0  0  0  0  0  0
   -2.3230   -6.5290   19.0410 C   0  0  0  0  0  0  0  0  0  0  0  0
   -2.6670  -10.6870   16.4480 C   0  0  0  0  0  0  0  0  0  0  0  0
   -1.4480  -11.5660   21.1760 C   0  0  0  0  0  0  0  0  0  0  0  0
   -4.2990  -12.3170   16.9310 C   0  0  0  0  0  0  0  0  0  0  0  0
   -2.1060  -10.4130   21.2990 C   0  0  0  0  0  0  0  0  0  0  0  0
   -0.1870   -8.7770   14.7700 C   0  0  0  0  0  0  0  0  0  0  0  0
   -4.2950  -11.3750   23.0560 C   0  0  0  0  0  0  0  0  0  0  0  0
    0.6420   -5.5610   13.7780 O   0  0  0  0  0  0  0  0  0  0  0  0
   -3.4270  -10.5110   20.6060 C   0  0  0  0  0  0  0  0  0  0  0  0
   -0.4360   -7.8700   15.9050 C   0  0  0  0  0  0  0  0  0  0  0  0
   -3.7260  -11.1300   19.1030 C   0  0  0  0  0  0  0  0  0  0  0  0
    0.7650   -8.7830   14.1310 O   0  0  0  0  0  0  0  0  0  0  0  0
   -0.7030   -8.1170   21.6280 C   0  0  0  0  0  0  0  0  0  0  0  0
  1  5  1  0
  2 29  1  0
  3 25  1  0
  4  3  2  0
  6 23  1  0
  6 31  1  0
  6 11  1  0
  7 10  1  0
  7 20  4  0
  8  4  1  0
  9 14  1  0
  9  6  1  0
 10 20  1  0
 12 26  1  0
 13  7  4  0
 13 18  4  0
 15 14  2  0
 16 24  1  0
 16 10  1  0
 17  9  1  0
 18 22  4  0
 19 17  1  0
 20  2  4  0
 22  2  4  0
 23 21  1  0
 24 28  1  0
 26  1  1  0
 27 23  1  0
 27  3  1  0
 28  5  1  0
 29  8  2  0
 29 27  1  0
 30 24  2  0
 31 11  1  0
M  END
$$$$

     RDKit          3D

 19 21  0  0  0  0  0  0  0  0999 V2000
   -1.5130  -11.0660   14.1990 N   0  0  0  0  0  0  0  0  0  0  0  0
   -0.4420   -9.2160   13.3860 C   0  0  0  0  0  0  0  0  0  0  0  0
   -4.1560  -12.1560   17.9050 C   0  0  0  0  0  0  0  0  0  0  0  0
    0.1560   -7.8140   13.6790 C   0  0  0  0  0  0  0  0  0  0  0  0
   -2.7640  -10.5820   19.2080 N   0  0  0  0  0  0  0  0  0  0  0  0
    0.8120   -6.8600   12.6780 C   0  0  0  0  0  0  0  0  0  0  0  0
   -4.2420  -11.6900   20.8050 C   0  0  0  0  0  0  0  0  0  0  0  0
   -1.5250   -9.5050   16.4280 S   0  0  0  0  0  0  0  0  0  0  0  0
   -2.8790  -10.3370   22.7240 C   0  0  0  0  0  0  0  0  0  0  0  0
   -0.7190  -10.0050   14.7530 C   0  0  0  0  0  0  0  0  0  0  0  0
    0.4690   -7.6820   14.8140 O   0  0  0  0  0  0  0  0  0  0  0  0
   -3.2090  -10.8350   20.4310 C   0  0  0  0  0  0  0  0  0  0  0  0
   -2.6790  -10.5830   16.8580 C   0  0  0  0  0  0  0  0  0  0  0  0
   -4.2000  -12.2070   16.3790 C   0  0  0  0  0  0  0  0  0  0  0  0
   -2.3200  -10.3500   21.4670 C   0  0  0  0  0  0  0  0  0  0  0  0
   -3.1560  -11.0350   18.0460 C   0  0  0  0  0  0  0  0  0  0  0  0
   -3.2970  -11.2550   15.8720 N   0  0  0  0  0  0  0  0  0  0  0  0
   -4.2210  -11.3950   22.6030 S   0  0  0  0  0  0  0  0  0  0  0  0
   -3.0000  -10.9320   14.5130 C   0  0  0  0  0  0  0  0  0  0  0  0
  1 19  1  0
  1 10  1  0
  2  4  1  0
  3 16  4  0
  4 11  2  0
  5 12  2  3
  6  4  1  0
  7 18  1  0
  8 13  1  0
 10  2  1  0
 10  8  1  0
 12  7  1  0
 12 15  1  0
 13 16  4  0
 14  3  4  0
 15  9  1  0
 16  5  1  0
 17 14  4  0
 17 13  4  0
 18  9  1  0
 19 17  1  0
M  END
$$$$

     RDKit          3D

 38 45  0  0  0  0  0  0  0  0999 V2000
   -3.7230  -11.3880   18.4570 C   0  0  0  0  0  0  0  0  0  0  0  0
   -2.7460  -13.3170   16.3540 O   0  0  0  0  0  0  0  0  0  0  0  0
   -4.0980   -9.6770   23.9590 O   0  0  0  0  0  0  0  0  0  0  0  0
   -4.4190  -11.9380   19.7950 C   0  0  0  0  0  0  0  0  0  0  0  0
   -3.6220  -11.5570   14.6280 C   0  0  0  0  0  0  0  0  0  0  0  0
   -0.3650   -9.2120   24.0950 C   0  0  0  0  0  0  0  0  0  0  0  0
    0.8370   -6.2100   12.4270 C   0  0  0  0  0  0  0  0  0  0  0  0
   -0.1370   -8.2650   15.5990 C   0  0  0  0  0  0  0  0  0  0  0  0
   -2.5740   -9.5900   19.6650 O   0  0  0  0  0  0  0  0  0  0  0  0
   -1.9770  -10.3710   16.7230 C   0  0  0  0  0  0  0  0  0  0  0  0
    0.5780   -7.3630   14.8340 C   0  0  0  0  0  0  0  0  0  0  0  0
   -5.2030  -12.5940   16.0910 C   0  0  0  0  0  0  0  0  0  0  0  0
    2.0640   -5.3840   12.4880 C   0  0  0  0  0  0  0  0  0  0  0  0
   -2.4040  -11.6400   23.1150 C   0  0  0  0  0  0  0  0  0  0  0  0
   -2.6780  -10.6210   19.1960 N   0  0  0  0  0  0  0  0  0  0  0  0
   -5.5390  -12.9700   21.5330 C   0  0  0  0  0  0  0  0  0  0  0  0
   -2.6190  -10.2420   22.0430 C   0  0  0  0  0  0  0  0  0  0  0  0
   -0.0140  -10.5390   23.1550 C   0  0  0  0  0  0  0  0  0  0  0  0
   -1.8960   -8.5830   23.9040 C   0  0  0  0  0  0  0  0  0  0  0  0
   -6.5850  -12.5070   22.0580 O   0  0  0  0  0  0  0  0  0  0  0  0
   -2.4810  -10.8720   14.4030 C   0  0  0  0  0  0  0  0  0  0  0  0
   -4.8110  -10.6840   23.1150 O   0  0  0  0  0  0  0  0  0  0  0  0
    1.8040   -6.8160   11.4070 C   0  0  0  0  0  0  0  0  0  0  0  0
    2.2920   -4.1160   11.9070 O   0  0  0  0  0  0  0  0  0  0  0  0
    2.7570   -5.4630   13.6820 O   0  0  0  0  0  0  0  0  0  0  0  0
    1.2490   -7.7360    9.9400 S   0  0  0  0  0  0  0  0  0  0  0  0
   -4.3900  -12.0990   21.1010 C   0  0  0  0  0  0  0  0  0  0  0  0
   -0.9680   -9.1310   15.0150 C   0  0  0  0  0  0  0  0  0  0  0  0
   -3.7220  -11.2800   22.2040 C   0  0  0  0  0  0  0  0  0  0  0  0
    0.5740   -7.4550   13.3940 C   0  0  0  0  0  0  0  0  0  0  0  0
   -3.6620  -12.1000   16.2490 C   0  0  0  0  0  0  0  0  0  0  0  0
   -3.5120  -10.8940   17.0650 C   0  0  0  0  0  0  0  0  0  0  0  0
   -0.0680   -8.4000   12.8120 C   0  0  0  0  0  0  0  0  0  0  0  0
   -0.9120  -11.8560   22.8720 C   0  0  0  0  0  0  0  0  0  0  0  0
   -2.9660   -9.3790   23.2890 C   0  0  0  0  0  0  0  0  0  0  0  0
   -2.0660  -10.5370   20.4010 C   0  0  0  0  0  0  0  0  0  0  0  0
   -0.8390   -9.1110   13.6260 C   0  0  0  0  0  0  0  0  0  0  0  0
   -1.8220  -10.1630   15.4950 N   0  0  0  0  0  0  0  0  0  0  0  0
  1 15  1  0
  1  4  1  0
  4 27  1  0
  5 31  1  0
  7 13  1  0
  7 30  1  0
  9 36  1  0
 10 32  1  0
 11  8  4  0
 12 31  1  0
 13 25  1  0
 14 34  1  0
 15  9  1  0
 15 36  1  0
 16 20  2  0
 17 29  1  0
 17 14  1  0
 17 35  1  0
 18  6  1  0
 19  6  1  0
 21  5  1  0
 21 38  1  0
 22  3  1  0
 23  7  1  0
 23 13  1  0
 24 13  1  0
 26 23  1  0
 27 16  1  0
 27 29  1  0
 28 38  1  0
 28  8  4  0
 29 22  1  0
 29 14  1  0
 30 11  4  0
 31  2  1  0
 31 32  1  0
 32  1  1  0
 33 30  4  0
 33 37  4  0
 34 18  1  0
 35 19  1  0
 35  3  1  0
 36 17  1  0
 37 28  4  0
 38 10  1  0
M  END
$$$$

     RDKit          3D

 27 31  0  0  0  0  0  0  0  0999 V2000
   -0.3320   -8.5040   15.1400 N   0  0  0  0  0  0  0  0  0  0  0  0
   -1.4500   -9.4180   19.4960 N   0  0  0  0  0  0  0  0  0  0  0  0
    0.4510   -7.6760   14.4590 C   0  0  0  0  0  0  0  0  0  0  0  0
   -3.4510   -9.9210   20.5240 C   0  0  0  0  0  0  0  0  0  0  0  0
   -5.1100  -12.4630   22.3420 C   0  0  0  0  0  0  0  0  0  0  0  0
   -4.9650  -11.6660   23.4520 O   0  0  0  0  0  0  0  0  0  0  0  0
   -2.7010  -10.7210   16.9910 C   0  0  0  0  0  0  0  0  0  0  0  0
   -3.6630  -11.1860   21.4980 C   0  0  0  0  0  0  0  0  0  0  0  0
   -1.4480  -10.7510   14.9710 N   0  0  0  0  0  0  0  0  0  0  0  0
   -2.6340  -11.0870   22.4790 C   0  0  0  0  0  0  0  0  0  0  0  0
   -1.9470  -10.0600   17.2280 N   0  0  0  0  0  0  0  0  0  0  0  0
   -0.9300   -9.4930   14.4900 C   0  0  0  0  0  0  0  0  0  0  0  0
   -3.7460  -10.6110   22.9750 C   0  0  0  0  0  0  0  0  0  0  0  0
    0.5800   -7.8450   13.1040 C   0  0  0  0  0  0  0  0  0  0  0  0
   -1.1620  -10.7880   22.7390 C   0  0  0  0  0  0  0  0  0  0  0  0
   -0.9720   -9.4440   13.1260 C   0  0  0  0  0  0  0  0  0  0  0  0
   -1.5860   -9.4050   18.2610 C   0  0  0  0  0  0  0  0  0  0  0  0
   -2.4580  -11.1230   15.6770 C   0  0  0  0  0  0  0  0  0  0  0  0
   -4.2830  -12.5840   17.0590 C   0  0  0  0  0  0  0  0  0  0  0  0
   -3.6990  -11.6380   17.6570 C   0  0  0  0  0  0  0  0  0  0  0  0
   -3.1200  -11.7410   13.8710 O   0  0  0  0  0  0  0  0  0  0  0  0
   -3.7820  -11.2850   14.8820 C   0  0  0  0  0  0  0  0  0  0  0  0
   -4.4080  -12.6250   15.5990 C   0  0  0  0  0  0  0  0  0  0  0  0
   -1.8480  -10.2230   20.2440 C   0  0  0  0  0  0  0  0  0  0  0  0
   -5.0090  -11.8990   21.2050 C   0  0  0  0  0  0  0  0  0  0  0  0
   -0.0690   -8.8120   12.4330 C   0  0  0  0  0  0  0  0  0  0  0  0
   -0.8230  -10.3860   21.3700 C   0  0  0  0  0  0  0  0  0  0  0  0
  3  1  1  0
  5  6  1  0
  7 11  1  0
  7 20  2  0
  8  4  1  0
  8 10  1  0
  8 13  1  0
 10 15  1  0
 10 13  1  0
 11 17  1  0
 12  9  1  0
 12  1  2  0
 13  6  1  0
 14  3  2  0
 16 12  1  0
 17  2  2  3
 18  9  1  0
 18  7  1  0
 19 20  1  0
 22 21  1  0
 22 23  1  0
 22 18  1  0
 23 19  1  0
 24  2  1  0
 24  4  1  0
 24 27  1  0
 25  8  1  0
 25  5  1  0
 26 14  1  0
 26 16  1  0
 27 15  1  0
M  END
$$$$

     RDKit          3D

 24 26  0  0  0  0  0  0  0  0999 V2000
   -5.2390  -12.0470   15.9570 C   0  0  0  0  0  0  0  0  0  0  0  0
   -2.9120  -11.0840   22.5890 C   0  0  0  0  0  0  0  0  0  0  0  0
   -5.0210  -10.7390   21.1500 O   0  0  0  0  0  0  0  0  0  0  0  0
    0.2210   -8.6220   13.0020 C   0  0  0  0  0  0  0  0  0  0  0  0
   -2.1870   -9.3130   18.3500 C   0  0  0  0  0  0  0  0  0  0  0  0
   -1.6380  -11.0770   22.8560 C   0  0  0  0  0  0  0  0  0  0  0  0
   -0.4320  -10.5660   22.8860 O   0  0  0  0  0  0  0  0  0  0  0  0
   -3.8970  -10.9480   20.4310 C   0  0  0  0  0  0  0  0  0  0  0  0
   -1.2790  -10.0280   14.6300 C   0  0  0  0  0  0  0  0  0  0  0  0
   -1.1010   -9.4250   19.3880 C   0  0  0  0  0  0  0  0  0  0  0  0
   -3.5260  -13.4450   17.1790 C   0  0  0  0  0  0  0  0  0  0  0  0
   -3.8440  -12.0060   16.6710 C   0  0  0  0  0  0  0  0  0  0  0  0
   -2.4770  -11.8330   14.5580 N   0  0  0  0  0  0  0  0  0  0  0  0
   -2.7970  -11.3510   15.7940 C   0  0  0  0  0  0  0  0  0  0  0  0
   -0.3880   -8.9210   14.3550 C   0  0  0  0  0  0  0  0  0  0  0  0
   -2.5410  -10.8540   21.1600 C   0  0  0  0  0  0  0  0  0  0  0  0
   -0.1550   -7.8710   15.3930 C   0  0  0  0  0  0  0  0  0  0  0  0
   -1.5530   -9.6580   20.8840 C   0  0  0  0  0  0  0  0  0  0  0  0
   -1.6150   -9.2160   16.9960 C   0  0  0  0  0  0  0  0  0  0  0  0
   -0.7510   -8.0500   16.6410 C   0  0  0  0  0  0  0  0  0  0  0  0
   -3.9680  -11.2890   19.3450 O   0  0  0  0  0  0  0  0  0  0  0  0
   -0.3020   -9.7750   21.7170 C   0  0  0  0  0  0  0  0  0  0  0  0
   -1.6710  -11.1020   13.8970 N   0  0  0  0  0  0  0  0  0  0  0  0
   -1.8930  -10.1440   15.9760 C   0  0  0  0  0  0  0  0  0  0  0  0
  1 12  1  0
  2  6  1  0
  5 10  1  0
  6  7  1  0
  8  3  1  0
  9 24  1  0
 12 11  1  0
 13 14  2  0
 14 24  1  0
 14 12  1  0
 15  4  1  0
 15  9  1  0
 15 17  1  0
 16  8  1  0
 16  2  1  0
 17 20  2  0
 18 10  1  0
 18 16  1  0
 18 22  1  0
 19  5  1  0
 20 19  1  0
 21  8  2  0
 22  7  1  0
 23 13  1  0
 23  9  2  0
 24 19  2  0
M  END
$$$$

     RDKit          3D

 32 34  0  0  0  0  0  0  0  0999 V2000
   -3.8610  -12.1020   17.3090 C   0  0  0  0  0  0  0  0  0  0  0  0
   -1.6850   -9.2310   22.0850 C   0  0  0  0  0  0  0  0  0  0  0  0
   -0.3140   -9.0830   22.9850 C   0  0  0  0  0  0  0  0  0  0  0  0
   -2.1630  -10.7820   16.5980 C   0  0  0  0  0  0  0  0  0  0  0  0
    0.5710   -8.1440   22.5020 F   0  0  0  0  0  0  0  0  0  0  0  0
   -2.7350  -10.9930   13.9070 N   0  0  0  0  0  0  0  0  0  0  0  0
   -0.4720   -9.9530   13.3470 C   0  0  0  0  0  0  0  0  0  0  0  0
   -0.2800   -8.5140   13.6150 N   0  0  0  0  0  0  0  0  0  0  0  0
   -4.9020  -13.2450   17.2430 C   0  0  0  0  0  0  0  0  0  0  0  0
   -4.4280  -11.3810   22.3190 N   0  0  0  0  0  0  0  0  0  0  0  0
   -3.3040  -11.4750   16.1630 C   0  0  0  0  0  0  0  0  0  0  0  0
   -1.2870  -10.2150   15.6350 C   0  0  0  0  0  0  0  0  0  0  0  0
   -1.9230  -10.6190   18.2790 S   0  0  0  0  0  0  0  0  0  0  0  0
   -3.2640  -11.5510   18.3980 C   0  0  0  0  0  0  0  0  0  0  0  0
   -3.6340  -11.4840   14.7830 C   0  0  0  0  0  0  0  0  0  0  0  0
   -5.1920  -12.4720   22.1030 O   0  0  0  0  0  0  0  0  0  0  0  0
   -3.5260  -11.0580   21.1390 C   0  0  0  0  0  0  0  0  0  0  0  0
   -5.0350  -12.3430   19.6760 O   0  0  0  0  0  0  0  0  0  0  0  0
   -4.4950  -10.7220   23.5080 C   0  0  0  0  0  0  0  0  0  0  0  0
    0.5930   -6.6060   12.7890 O   0  0  0  0  0  0  0  0  0  0  0  0
   -3.7280   -9.5970   23.6470 C   0  0  0  0  0  0  0  0  0  0  0  0
    0.6950   -8.5580   11.5840 O   0  0  0  0  0  0  0  0  0  0  0  0
   -1.5310  -10.4200   14.3100 C   0  0  0  0  0  0  0  0  0  0  0  0
   -1.2400   -8.4070   20.9440 C   0  0  0  0  0  0  0  0  0  0  0  0
   -0.1180   -6.0850   13.9220 O   0  0  0  0  0  0  0  0  0  0  0  0
   -3.9800  -11.6980   19.7830 C   0  0  0  0  0  0  0  0  0  0  0  0
   -2.7150   -7.5180   23.3100 F   0  0  0  0  0  0  0  0  0  0  0  0
   -2.7160   -8.8100   23.0720 C   0  0  0  0  0  0  0  0  0  0  0  0
    0.3670   -7.9100   12.5670 C   0  0  0  0  0  0  0  0  0  0  0  0
   -0.5000   -8.7970   24.3250 F   0  0  0  0  0  0  0  0  0  0  0  0
    0.5570  -10.1880   22.9690 F   0  0  0  0  0  0  0  0  0  0  0  0
   -2.4470  -10.3510   21.2860 C   0  0  0  0  0  0  0  0  0  0  0  0
  1  9  1  0
  1 14  1  0
  2 24  1  0
  2  3  1  0
  2 28  1  0
  3 30  1  0
  4 13  1  0
  5  3  1  0
  6 23  4  0
  6 15  4  0
  7  8  1  0
  7 23  1  0
 10 19  1  0
 11  4  4  0
 11  1  1  0
 12  4  4  0
 13 14  1  0
 14 26  1  0
 15 11  4  0
 16 10  1  0
 17 26  1  0
 17 32  1  0
 17 10  1  0
 18 26  2  0
 19 21  2  0
 20 25  1  0
 22 29  2  0
 23 12  4  0
 28 27  1  0
 28 21  1  0
 29 20  1  0
 29  8  1  0
 31  3  1  0
 32  2  1  0
M  END
$$$$

     RDKit          3D

 22 22  0  0  0  0  0  0  0  0999 V2000
   -1.4580   -9.5520   23.0220 F   0  0  0  0  0  0  0  0  0  0  0  0
   -3.5410  -11.8290   16.5660 C   0  0  0  0  0  0  0  0  0  0  0  0
   -5.2200  -11.1840   20.7440 O   0  0  0  0  0  0  0  0  0  0  0  0
    0.6020   -7.1690   13.7910 C   0  0  0  0  0  0  0  0  0  0  0  0
   -4.3470  -12.4940   17.2710 N   0  0  0  0  0  0  0  0  0  0  0  0
   -1.9160  -10.3720   14.8150 C   0  0  0  0  0  0  0  0  0  0  0  0
   -0.4910   -8.6230   15.2680 O   0  0  0  0  0  0  0  0  0  0  0  0
   -3.2040  -10.6560   19.5180 N   0  0  0  0  0  0  0  0  0  0  0  0
    0.4170   -6.5440   16.1650 C   0  0  0  0  0  0  0  0  0  0  0  0
   -2.8340  -11.2950   14.3640 C   0  0  0  0  0  0  0  0  0  0  0  0
   -1.8460  -10.1170   16.2300 C   0  0  0  0  0  0  0  0  0  0  0  0
    0.4890   -7.5980   15.1300 N   0  0  0  0  0  0  0  0  0  0  0  0
   -4.2390  -10.8660   21.6060 C   0  0  0  0  0  0  0  0  0  0  0  0
   -0.5390   -9.4270   20.8280 F   0  0  0  0  0  0  0  0  0  0  0  0
   -0.8400   -9.0880   16.5700 C   0  0  0  0  0  0  0  0  0  0  0  0
   -1.8930  -11.1310   21.5370 C   0  0  0  0  0  0  0  0  0  0  0  0
   -3.0400  -10.7320   20.9700 C   0  0  0  0  0  0  0  0  0  0  0  0
   -0.6760  -10.1810   22.0450 C   0  0  0  0  0  0  0  0  0  0  0  0
   -2.4740  -10.8680   18.5780 C   0  0  0  0  0  0  0  0  0  0  0  0
   -2.5830  -10.9000   17.0870 C   0  0  0  0  0  0  0  0  0  0  0  0
   -3.5490  -11.9780   15.1870 N   0  0  0  0  0  0  0  0  0  0  0  0
    0.4640   -9.4990   22.2060 F   0  0  0  0  0  0  0  0  0  0  0  0
  2 20  4  0
  2  5  1  0
  3 13  1  0
  4 12  1  0
  6 11  4  0
  7 15  1  0
  8 17  1  0
 10  6  4  0
 10 21  4  0
 11 15  1  0
 11 20  4  0
 12  7  1  0
 12  9  1  0
 14 18  1  0
 16 18  1  0
 17 16  1  0
 17 13  1  0
 18 22  1  0
 18  1  1  0
 19  8  2  3
 20 19  1  0
 21  2  4  0
M  END
$$$$

     RDKit          3D

 15 16  0  0  0  0  0  0  0  0999 V2000
   -4.1220  -11.2520   19.0750 C   0  0  0  0  0  0  0  0  0  0  0  0
   -2.0380  -10.7420   14.7150 N   0  0  0  0  0  0  0  0  0  0  0  0
   -2.9900  -11.6340   14.5730 N   0  0  0  0  0  0  0  0  0  0  0  0
   -1.0390  -10.0050   14.1310 C   0  0  0  0  0  0  0  0  0  0  0  0
   -3.6530  -11.9190   15.8030 C   0  0  0  0  0  0  0  0  0  0  0  0
   -2.9190  -11.1430   16.8710 C   0  0  0  0  0  0  0  0  0  0  0  0
   -1.0120   -9.5130   16.2620 N   0  0  0  0  0  0  0  0  0  0  0  0
   -3.5420  -11.1440   21.5330 C   0  0  0  0  0  0  0  0  0  0  0  0
   -2.0740  -11.0130   21.0240 C   0  0  0  0  0  0  0  0  0  0  0  0
   -1.9890   -9.8230   20.2230 O   0  0  0  0  0  0  0  0  0  0  0  0
   -1.9430  -10.4350   16.0950 C   0  0  0  0  0  0  0  0  0  0  0  0
   -4.7170  -12.3020   18.6210 O   0  0  0  0  0  0  0  0  0  0  0  0
   -4.3420  -10.8070   20.3440 N   0  0  0  0  0  0  0  0  0  0  0  0
   -0.3930   -9.1870   15.0580 C   0  0  0  0  0  0  0  0  0  0  0  0
   -3.4510  -10.4990   18.0960 N   0  0  0  0  0  0  0  0  0  0  0  0
  1 13  1  0
  2 11  4  0
  3  2  1  0
  3  5  2  0
  4  2  4  0
  4 14  4  0
  5  6  1  0
  6 15  1  0
  9  8  1  0
 10  9  1  0
 11  7  4  0
 11  6  1  0
 12  1  2  0
 13  8  1  0
 14  7  4  0
 15  1  1  0
M  END
$$$$

     RDKit          3D

 18 19  0  0  0  0  0  0  0  0999 V2000
   -2.8350   -9.7170   18.0460 C   0  0  0  0  0  0  0  0  0  0  0  0
   -2.6430  -11.5040   21.6650 C   0  0  0  0  0  0  0  0  0  0  0  0
   -2.1410  -10.4770   14.6430 C   0  0  0  0  0  0  0  0  0  0  0  0
   -2.2360  -10.4530   17.0770 C   0  0  0  0  0  0  0  0  0  0  0  0
   -2.4140   -9.2400   19.1870 O   0  0  0  0  0  0  0  0  0  0  0  0
   -0.2750   -9.2710   16.8750 C   0  0  0  0  0  0  0  0  0  0  0  0
   -2.7660  -11.2850   14.9110 N   0  0  0  0  0  0  0  0  0  0  0  0
   -1.2970   -9.9400   16.1670 C   0  0  0  0  0  0  0  0  0  0  0  0
   -3.4900  -11.0830   15.7900 C   0  0  0  0  0  0  0  0  0  0  0  0
   -0.1860  -10.4050   22.8210 C   0  0  0  0  0  0  0  0  0  0  0  0
   -0.7830   -9.8870   21.6990 C   0  0  0  0  0  0  0  0  0  0  0  0
   -3.7590  -13.2060   15.7090 O   0  0  0  0  0  0  0  0  0  0  0  0
   -1.4390  -11.1180   23.4160 C   0  0  0  0  0  0  0  0  0  0  0  0
   -1.8340   -9.9370   13.5340 N   0  0  0  0  0  0  0  0  0  0  0  0
   -3.9910  -12.2920   16.7030 C   0  0  0  0  0  0  0  0  0  0  0  0
   -1.9640  -10.3340   19.6790 C   0  0  0  0  0  0  0  0  0  0  0  0
   -1.9670  -10.6820   21.1060 C   0  0  0  0  0  0  0  0  0  0  0  0
   -1.3550   -8.8690   16.3970 C   0  0  0  0  0  0  0  0  0  0  0  0
  1  5  1  0
  3  7  2  0
  3  8  1  0
  4  1  1  0
  5 16  1  0
  7  9  1  0
  8 18  1  0
  8  6  1  0
  8  4  1  0
  9 15  1  0
  9  4  1  0
 10 13  1  0
 11 10  1  0
 12 15  1  0
 14  3  1  0
 16 17  1  0
 17  2  2  0
 17 11  1  0
 18  6  1  0
M  END
$$$$

     RDKit          3D

 20 22  0  0  0  0  0  0  0  0999 V2000
   -1.4020   -9.5160   16.4670 C   0  0  0  0  0  0  0  0  0  0  0  0
   -0.1850   -9.0150   12.8660 C   0  0  0  0  0  0  0  0  0  0  0  0
   -0.6800   -9.1440   15.3160 C   0  0  0  0  0  0  0  0  0  0  0  0
   -2.7060  -11.3130   14.5640 N   0  0  0  0  0  0  0  0  0  0  0  0
   -2.5130  -10.8070   20.6350 C   0  0  0  0  0  0  0  0  0  0  0  0
   -3.7100  -11.5650   20.4540 C   0  0  0  0  0  0  0  0  0  0  0  0
   -2.8470  -10.6310   18.2810 C   0  0  0  0  0  0  0  0  0  0  0  0
   -2.1710  -10.2280   19.3470 C   0  0  0  0  0  0  0  0  0  0  0  0
   -4.1450  -12.4840   16.2280 C   0  0  0  0  0  0  0  0  0  0  0  0
   -0.8870   -9.6320   14.0700 C   0  0  0  0  0  0  0  0  0  0  0  0
   -2.3500  -11.2840   23.4790 O   0  0  0  0  0  0  0  0  0  0  0  0
   -1.2070   -9.1300   19.8190 C   0  0  0  0  0  0  0  0  0  0  0  0
   -1.8680  -10.6780   13.8020 N   0  0  0  0  0  0  0  0  0  0  0  0
   -1.4220  -11.0000   22.8480 C   0  0  0  0  0  0  0  0  0  0  0  0
   -4.2230  -11.6660   18.7980 S   0  0  0  0  0  0  0  0  0  0  0  0
   -1.6850  -10.2740   21.5980 C   0  0  0  0  0  0  0  0  0  0  0  0
   -0.9560   -9.2380   21.2210 N   0  0  0  0  0  0  0  0  0  0  0  0
   -2.4730  -10.4510   16.8270 C   0  0  0  0  0  0  0  0  0  0  0  0
   -0.3020  -11.2280   23.2270 O   0  0  0  0  0  0  0  0  0  0  0  0
   -3.1610  -11.3990   15.8600 C   0  0  0  0  0  0  0  0  0  0  0  0
  1 18  1  0
  2 10  1  0
  3  1  2  0
  4 20  2  0
  5 16  1  0
  6  5  4  0
  7 15  4  0
  7  8  4  0
  8 12  1  0
  8  5  4  0
 10  3  1  0
 12 17  1  0
 13 10  2  0
 13  4  1  0
 14 19  2  0
 14 11  1  0
 15  6  4  0
 16 14  1  0
 17 16  2  0
 18  7  1  0
 20  9  1  0
 20 18  1  0
M  END
$$$$

     RDKit          3D

 19 20  0  0  0  0  0  0  0  0999 V2000
   -4.2330  -12.2780   15.6210 C   0  0  0  0  0  0  0  0  0  0  0  0
   -3.2190  -11.1990   23.5100 O   0  0  0  0  0  0  0  0  0  0  0  0
   -1.9850  -10.4170   16.0440 N   0  0  0  0  0  0  0  0  0  0  0  0
   -3.3440  -11.8260   14.7550 N   0  0  0  0  0  0  0  0  0  0  0  0
   -1.7000  -10.7020   13.7010 N   0  0  0  0  0  0  0  0  0  0  0  0
   -2.5560  -11.1130   21.2460 C   0  0  0  0  0  0  0  0  0  0  0  0
   -1.9150   -9.6020   18.1460 C   0  0  0  0  0  0  0  0  0  0  0  0
   -2.3160  -11.0310   14.8440 C   0  0  0  0  0  0  0  0  0  0  0  0
   -0.8140   -9.2550   20.1940 O   0  0  0  0  0  0  0  0  0  0  0  0
   -3.4620  -11.5540   17.8350 C   0  0  0  0  0  0  0  0  0  0  0  0
   -2.9150  -10.1150   20.2100 N   0  0  0  0  0  0  0  0  0  0  0  0
   -4.3200  -12.2530   17.0000 C   0  0  0  0  0  0  0  0  0  0  0  0
   -1.0360   -9.3960   16.0950 N   0  0  0  0  0  0  0  0  0  0  0  0
   -0.8090  -10.8730   22.9650 C   0  0  0  0  0  0  0  0  0  0  0  0
   -2.5210   -8.9690   22.6440 C   0  0  0  0  0  0  0  0  0  0  0  0
   -1.8340   -9.6320   19.5840 C   0  0  0  0  0  0  0  0  0  0  0  0
   -1.0530   -8.9290   17.3040 C   0  0  0  0  0  0  0  0  0  0  0  0
   -2.2510  -10.5190   22.5460 C   0  0  0  0  0  0  0  0  0  0  0  0
   -2.5050  -10.6310   17.2270 C   0  0  0  0  0  0  0  0  0  0  0  0
  1 12  2  0
  3 13  4  0
  3 19  4  0
  4  8  2  0
  4  1  1  0
  5  8  1  0
  6 18  1  0
  7 16  1  0
  8  3  1  0
 11  6  1  0
 12 10  1  0
 13 17  4  0
 16  9  2  0
 16 11  1  0
 17  7  4  0
 18 15  1  0
 18 14  1  0
 18  2  1  0
 19 10  1  0
 19  7  4  0
M  END
$$$$

     RDKit          3D

 32 34  0  0  0  0  0  0  0  0999 V2000
   -3.7300  -10.3980   17.4960 O   0  0  0  0  0  0  0  0  0  0  0  0
   -3.9850  -11.9660   14.8650 C   0  0  0  0  0  0  0  0  0  0  0  0
   -2.5070  -11.4620   19.0360 N   0  0  0  0  0  0  0  0  0  0  0  0
   -3.0260  -11.2280   21.4990 C   0  0  0  0  0  0  0  0  0  0  0  0
    0.8420   -7.4470   12.4570 C   0  0  0  0  0  0  0  0  0  0  0  0
   -3.3650  -12.2350   24.1090 O   0  0  0  0  0  0  0  0  0  0  0  0
   -0.2290   -8.0420   15.9870 O   0  0  0  0  0  0  0  0  0  0  0  0
   -5.5680  -11.4120   24.6140 N   0  0  0  0  0  0  0  0  0  0  0  0
   -4.0150   -9.7590   23.9580 O   0  0  0  0  0  0  0  0  0  0  0  0
   -3.7620  -11.3270   13.7310 C   0  0  0  0  0  0  0  0  0  0  0  0
    1.2090   -6.0580   14.4450 C   0  0  0  0  0  0  0  0  0  0  0  0
    0.4270   -5.3270   15.2920 N   0  0  0  0  0  0  0  0  0  0  0  0
   -0.0120   -8.1400   14.8000 C   0  0  0  0  0  0  0  0  0  0  0  0
   -4.2980  -11.2160   23.7070 S   0  0  0  0  0  0  0  0  0  0  0  0
   -2.7340  -12.4440   16.6830 C   0  0  0  0  0  0  0  0  0  0  0  0
    0.1170  -10.9590   15.5440 O   0  0  0  0  0  0  0  0  0  0  0  0
   -5.4170  -11.6890   21.3630 C   0  0  0  0  0  0  0  0  0  0  0  0
    0.5830   -7.1690   13.9650 N   0  0  0  0  0  0  0  0  0  0  0  0
    2.3950   -5.8220   15.2610 C   0  0  0  0  0  0  0  0  0  0  0  0
   -2.9650  -11.3790   17.6450 C   0  0  0  0  0  0  0  0  0  0  0  0
   -0.3850   -9.2340   14.2740 N   0  0  0  0  0  0  0  0  0  0  0  0
   -3.5010  -11.1140   20.0410 C   0  0  0  0  0  0  0  0  0  0  0  0
   -4.8940  -11.6230   19.9360 C   0  0  0  0  0  0  0  0  0  0  0  0
   -0.7040  -10.4230   14.9140 C   0  0  0  0  0  0  0  0  0  0  0  0
   -1.5390  -11.5540   21.5310 O   0  0  0  0  0  0  0  0  0  0  0  0
   -4.3380  -11.5720   22.2500 N   0  0  0  0  0  0  0  0  0  0  0  0
    2.2890   -3.9490   16.4150 C   0  0  0  0  0  0  0  0  0  0  0  0
    1.0130   -4.4400   16.5520 C   0  0  0  0  0  0  0  0  0  0  0  0
   -1.9170  -10.8540   14.9190 N   0  0  0  0  0  0  0  0  0  0  0  0
   -3.0960  -10.7770   14.6280 C   0  0  0  0  0  0  0  0  0  0  0  0
   -3.2710  -12.6340   15.7900 O   0  0  0  0  0  0  0  0  0  0  0  0
    3.1600   -5.1470   16.0210 C   0  0  0  0  0  0  0  0  0  0  0  0
  1 20  2  0
  2 31  1  0
  4 25  2  0
  4 26  1  0
  5 18  1  0
 10 30  1  0
 10  2  1  0
 11 18  1  0
 11 19  1  0
 11 12  1  0
 12 28  1  0
 13  7  2  0
 14  9  2  0
 14  6  2  0
 14  8  1  0
 15 20  1  0
 17 26  1  0
 18 13  1  0
 19 32  1  0
 20  3  1  0
 21 13  1  0
 21 24  1  0
 22  3  1  0
 22  4  1  0
 23 22  1  0
 23 17  1  0
 24 29  1  0
 24 16  2  0
 26 14  1  0
 27 28  1  0
 30  2  1  0
 30 29  1  0
 31 15  1  0
 32 27  1  0
M  END
$$$$

     RDKit          3D

 32 33  0  0  0  0  0  0  0  0999 V2000
   -4.0400  -11.1260   17.4520 C   0  0  0  0  0  0  0  0  0  0  0  0
   -2.6940  -11.7720   23.4460 C   0  0  0  0  0  0  0  0  0  0  0  0
    0.1480   -7.7190   16.0290 C   0  0  0  0  0  0  0  0  0  0  0  0
   -0.4770   -9.1660   24.6330 O   0  0  0  0  0  0  0  0  0  0  0  0
   -1.7630   -9.8050   22.4200 C   0  0  0  0  0  0  0  0  0  0  0  0
   -0.9000   -7.3690   18.1890 C   0  0  0  0  0  0  0  0  0  0  0  0
   -2.2150  -11.4890   15.8180 C   0  0  0  0  0  0  0  0  0  0  0  0
   -0.6720   -8.5300   23.4580 C   0  0  0  0  0  0  0  0  0  0  0  0
    0.4420   -8.5920   22.4950 C   0  0  0  0  0  0  0  0  0  0  0  0
   -3.4510  -10.8970   20.1000 C   0  0  0  0  0  0  0  0  0  0  0  0
   -1.8370   -9.8150   13.9310 O   0  0  0  0  0  0  0  0  0  0  0  0
   -2.3390   -8.8150   21.6080 O   0  0  0  0  0  0  0  0  0  0  0  0
   -5.2140  -12.2400   20.9270 F   0  0  0  0  0  0  0  0  0  0  0  0
   -4.8090  -10.9200   20.9720 C   0  0  0  0  0  0  0  0  0  0  0  0
   -2.3080  -10.5990   16.7900 C   0  0  0  0  0  0  0  0  0  0  0  0
   -0.8710   -9.2730   14.4650 C   0  0  0  0  0  0  0  0  0  0  0  0
    0.0710   -9.0500   13.6550 O   0  0  0  0  0  0  0  0  0  0  0  0
   -1.6550   -8.5500   18.0970 C   0  0  0  0  0  0  0  0  0  0  0  0
   -1.5410   -9.3580   17.0310 C   0  0  0  0  0  0  0  0  0  0  0  0
   -4.3830  -12.3760   15.4950 C   0  0  0  0  0  0  0  0  0  0  0  0
    0.0940   -9.4560   21.3230 C   0  0  0  0  0  0  0  0  0  0  0  0
   -4.0160  -12.2270   24.1880 C   0  0  0  0  0  0  0  0  0  0  0  0
   -5.6980  -10.2310   20.1110 F   0  0  0  0  0  0  0  0  0  0  0  0
   -1.5260  -11.7730   14.7830 O   0  0  0  0  0  0  0  0  0  0  0  0
   -2.9310  -10.8220   22.4850 N   0  0  0  0  0  0  0  0  0  0  0  0
   -3.6130  -10.7380   18.6660 C   0  0  0  0  0  0  0  0  0  0  0  0
   -3.5970  -11.5170   15.0710 C   0  0  0  0  0  0  0  0  0  0  0  0
   -0.8240  -10.5400   21.6960 C   0  0  0  0  0  0  0  0  0  0  0  0
   -4.1830  -12.5230   17.1160 C   0  0  0  0  0  0  0  0  0  0  0  0
    0.1410   -6.9870   17.1300 C   0  0  0  0  0  0  0  0  0  0  0  0
   -4.3870  -10.4570   22.2710 C   0  0  0  0  0  0  0  0  0  0  0  0
   -0.7000   -8.8610   15.7790 C   0  0  0  0  0  0  0  0  0  0  0  0
  1 26  1  0
  2 22  1  0
  3 30  4  0
  5 12  1  0
  5 25  1  0
  7 24  1  0
  7 15  1  0
  8  4  1  0
  9  8  1  0
 10 14  1  0
 11 16  1  0
 13 14  1  0
 14 31  1  0
 15 19  1  0
 15  1  1  0
 16 32  1  0
 17 16  2  0
 18  6  4  0
 19 18  4  0
 20 29  1  0
 21 28  1  0
 21  9  1  0
 23 14  1  0
 25  2  1  0
 26 10  1  0
 27 20  1  0
 27  7  1  0
 28  5  1  0
 29  1  1  0
 30  6  4  0
 31 25  1  0
 32  3  4  0
 32 19  4  0
M  END
$$$$

     RDKit          3D

 32 34  0  0  0  0  0  0  0  0999 V2000
   -4.1330  -11.4800   22.3830 C   0  0  0  0  0  0  0  0  0  0  0  0
   -0.8070   -4.5030   17.3560 O   0  0  0  0  0  0  0  0  0  0  0  0
   -2.7200  -10.3720   17.5560 C   0  0  0  0  0  0  0  0  0  0  0  0
   -0.9170   -5.7880   17.8720 C   0  0  0  0  0  0  0  0  0  0  0  0
   -2.0690  -12.8320   16.4280 O   0  0  0  0  0  0  0  0  0  0  0  0
    0.3780   -8.1010   13.7310 C   0  0  0  0  0  0  0  0  0  0  0  0
   -3.5130  -11.2070   18.5440 O   0  0  0  0  0  0  0  0  0  0  0  0
   -1.8050   -9.8180   19.5860 C   0  0  0  0  0  0  0  0  0  0  0  0
   -0.0840  -10.5740   22.7170 C   0  0  0  0  0  0  0  0  0  0  0  0
    0.1410   -9.1890   12.9410 C   0  0  0  0  0  0  0  0  0  0  0  0
   -1.0930   -8.8170   15.6370 C   0  0  0  0  0  0  0  0  0  0  0  0
   -3.4220  -11.6220   23.6600 C   0  0  0  0  0  0  0  0  0  0  0  0
   -0.6570  -10.1280   13.3580 N   0  0  0  0  0  0  0  0  0  0  0  0
   -2.9410  -12.0640   15.7230 C   0  0  0  0  0  0  0  0  0  0  0  0
   -3.4550  -11.0650   21.1790 C   0  0  0  0  0  0  0  0  0  0  0  0
   -1.6900   -5.9410   19.1500 C   0  0  0  0  0  0  0  0  0  0  0  0
   -2.1190   -9.3520   18.1700 C   0  0  0  0  0  0  0  0  0  0  0  0
   -2.1520  -10.5800   20.8430 C   0  0  0  0  0  0  0  0  0  0  0  0
   -4.1900  -11.3230   19.8090 C   0  0  0  0  0  0  0  0  0  0  0  0
   -1.5040  -10.3940   14.2300 N   0  0  0  0  0  0  0  0  0  0  0  0
   -0.6830   -7.0110   17.2740 C   0  0  0  0  0  0  0  0  0  0  0  0
   -1.7870   -9.9110   15.5380 C   0  0  0  0  0  0  0  0  0  0  0  0
   -2.1040   -7.2030   19.1310 O   0  0  0  0  0  0  0  0  0  0  0  0
   -5.3250  -11.7170   19.9230 O   0  0  0  0  0  0  0  0  0  0  0  0
    0.7030   -9.2550   11.5720 C   0  0  0  0  0  0  0  0  0  0  0  0
   -1.5270   -7.9730   18.0640 C   0  0  0  0  0  0  0  0  0  0  0  0
   -2.0540  -11.4030   23.6560 C   0  0  0  0  0  0  0  0  0  0  0  0
   -4.2600  -12.7130   15.7490 C   0  0  0  0  0  0  0  0  0  0  0  0
   -1.2600  -10.9650   22.6540 C   0  0  0  0  0  0  0  0  0  0  0  0
   -0.1670   -7.9760   14.9540 C   0  0  0  0  0  0  0  0  0  0  0  0
   -5.3620  -11.6480   22.4950 O   0  0  0  0  0  0  0  0  0  0  0  0
   -2.8980  -10.6010   16.0710 C   0  0  0  0  0  0  0  0  0  0  0  0
  1 31  2  0
  1 12  1  0
  2  4  1  0
  3 32  1  0
  3 17  1  0
  3  7  1  0
  4 16  4  0
  6 30  1  0
  7 19  1  0
  8 18  1  0
 10 13  2  0
 10  6  1  0
 13 20  1  0
 14 28  1  0
 14  5  1  0
 15  1  1  0
 17 26  1  0
 17  8  1  0
 18 15  1  0
 19 24  2  0
 19 15  1  0
 20 22  2  0
 21  4  4  0
 21 26  4  0
 22 11  1  0
 22 32  1  0
 23 16  4  0
 25 10  1  0
 26 23  4  0
 27 12  2  3
 29  9  2  0
 29 27  1  0
 30 11  2  0
 32 14  1  0
M  END
$$$$

     RDKit          3D

 28 31  0  0  0  0  0  0  0  0999 V2000
    0.5550   -5.0670   17.0530 C   0  0  0  0  0  0  0  0  0  0  0  0
   -4.3750  -10.7840   19.7450 N   0  0  0  0  0  0  0  0  0  0  0  0
   -3.0050  -11.3740   15.5570 N   0  0  0  0  0  0  0  0  0  0  0  0
   -4.3190  -11.9000   14.9630 C   0  0  0  0  0  0  0  0  0  0  0  0
   -4.8420  -11.9810   20.4670 C   0  0  0  0  0  0  0  0  0  0  0  0
   -0.6760   -5.9460   17.5600 C   0  0  0  0  0  0  0  0  0  0  0  0
   -4.1260  -10.8220   22.5130 C   0  0  0  0  0  0  0  0  0  0  0  0
   -1.0150   -9.3550   16.6560 C   0  0  0  0  0  0  0  0  0  0  0  0
   -5.3030  -12.4910   24.0500 C   0  0  0  0  0  0  0  0  0  0  0  0
   -0.1530   -9.0820   14.5590 C   0  0  0  0  0  0  0  0  0  0  0  0
   -1.9690  -10.8150   13.6360 O   0  0  0  0  0  0  0  0  0  0  0  0
   -4.6530  -11.4150   24.6110 N   0  0  0  0  0  0  0  0  0  0  0  0
    0.2800   -6.4470   13.4980 C   0  0  0  0  0  0  0  0  0  0  0  0
   -5.3800  -12.7880   22.7330 C   0  0  0  0  0  0  0  0  0  0  0  0
   -4.1110  -10.5790   23.7940 N   0  0  0  0  0  0  0  0  0  0  0  0
   -3.0810  -10.7170   19.3220 C   0  0  0  0  0  0  0  0  0  0  0  0
   -4.7850  -11.8650   21.9320 C   0  0  0  0  0  0  0  0  0  0  0  0
    0.9750   -5.5650   15.7740 C   0  0  0  0  0  0  0  0  0  0  0  0
   -1.5940   -9.7210   17.7950 N   0  0  0  0  0  0  0  0  0  0  0  0
   -1.1050   -9.8450   15.4410 C   0  0  0  0  0  0  0  0  0  0  0  0
   -2.9190  -11.6070   16.9960 C   0  0  0  0  0  0  0  0  0  0  0  0
    0.1410   -6.5300   14.9920 C   0  0  0  0  0  0  0  0  0  0  0  0
   -0.1190   -7.3230   17.7870 C   0  0  0  0  0  0  0  0  0  0  0  0
   -2.1340  -11.0580   19.9840 O   0  0  0  0  0  0  0  0  0  0  0  0
    0.4690   -7.9390   15.3560 C   0  0  0  0  0  0  0  0  0  0  0  0
   -0.2330   -8.2320   16.6990 N   0  0  0  0  0  0  0  0  0  0  0  0
   -2.8650  -10.3650   17.8350 C   0  0  0  0  0  0  0  0  0  0  0  0
   -2.0850  -10.7050   14.7830 C   0  0  0  0  0  0  0  0  0  0  0  0
  1  6  1  0
  2  5  1  0
  3 21  1  0
  4  3  1  0
  5 17  1  0
  6 23  1  0
  7 15  4  0
  8 26  1  0
  8 19  2  0
  9 12  4  0
 10 20  2  0
 11 28  2  0
 14  9  4  0
 15 12  4  0
 16  2  1  0
 16 24  2  0
 17  7  4  0
 17 14  4  0
 18  1  1  0
 19 27  1  0
 20  8  1  0
 21 27  1  0
 22 13  1  0
 22 25  1  0
 22 18  1  0
 25 10  1  0
 25 26  1  0
 26 23  1  0
 27 16  1  0
 28 20  1  0
 28  3  1  0
M  END
$$$$

     RDKit          3D

 21 23  0  0  0  0  0  0  0  0999 V2000
   -1.4960  -10.6090   14.0920 N   0  0  0  0  0  0  0  0  0  0  0  0
   -3.7830  -11.5120   18.5580 N   0  0  0  0  0  0  0  0  0  0  0  0
   -2.2610  -10.0280   17.4740 C   0  0  0  0  0  0  0  0  0  0  0  0
   -0.6360   -8.9970   16.1290 N   0  0  0  0  0  0  0  0  0  0  0  0
   -5.3360  -11.5300   21.8730 C   0  0  0  0  0  0  0  0  0  0  0  0
   -2.0760   -9.1670   18.4680 C   0  0  0  0  0  0  0  0  0  0  0  0
   -0.3720   -8.1810   17.1740 C   0  0  0  0  0  0  0  0  0  0  0  0
   -2.9390  -11.2370   22.1620 C   0  0  0  0  0  0  0  0  0  0  0  0
   -0.8560   -9.7050   14.0150 N   0  0  0  0  0  0  0  0  0  0  0  0
   -2.1010  -10.8680   15.3260 C   0  0  0  0  0  0  0  0  0  0  0  0
   -2.8530  -11.1870   20.7920 C   0  0  0  0  0  0  0  0  0  0  0  0
   -5.1970  -11.4910   20.5400 C   0  0  0  0  0  0  0  0  0  0  0  0
   -3.8860  -11.4800   19.9530 C   0  0  0  0  0  0  0  0  0  0  0  0
   -3.6780  -12.8970   15.6880 C   0  0  0  0  0  0  0  0  0  0  0  0
   -1.5920   -9.9110   16.2670 C   0  0  0  0  0  0  0  0  0  0  0  0
   -1.1660   -8.1680   18.3430 C   0  0  0  0  0  0  0  0  0  0  0  0
   -2.0240  -11.0240   22.9750 F   0  0  0  0  0  0  0  0  0  0  0  0
   -3.0580  -11.6570   16.0910 C   0  0  0  0  0  0  0  0  0  0  0  0
   -0.1330   -8.8500   13.1010 C   0  0  0  0  0  0  0  0  0  0  0  0
   -4.2780  -11.4020   22.6850 C   0  0  0  0  0  0  0  0  0  0  0  0
   -3.1400  -11.1120   17.3860 C   0  0  0  0  0  0  0  0  0  0  0  0
  1 10  2  3
  2 13  1  0
  3  6  4  0
  4 15  4  0
  4  7  4  0
  5 20  4  0
  7 16  4  0
  8 20  4  0
  8 17  1  0
  9  1  1  0
 10 18  1  0
 10 15  1  0
 11  8  4  0
 12  5  4  0
 13 12  4  0
 13 11  4  0
 14 18  1  0
 15  3  4  0
 16  6  4  0
 18 21  2  0
 19  9  1  0
 21  3  1  0
 21  2  1  0
M  END
$$$$

     RDKit          3D

 23 25  0  0  0  0  0  0  0  0999 V2000
    0.1970   -7.4840   14.4270 C   0  0  0  0  0  0  0  0  0  0  0  0
   -0.1620   -8.8040   14.0520 C   0  0  0  0  0  0  0  0  0  0  0  0
    0.4220   -6.0290   14.4380 C   0  0  0  0  0  0  0  0  0  0  0  0
   -1.7050  -10.7910   22.6240 C   0  0  0  0  0  0  0  0  0  0  0  0
    0.1760   -9.2790   22.6330 C   0  0  0  0  0  0  0  0  0  0  0  0
   -1.0940   -8.8260   15.9760 C   0  0  0  0  0  0  0  0  0  0  0  0
   -3.6240  -11.1040   18.1840 C   0  0  0  0  0  0  0  0  0  0  0  0
   -3.4040  -12.2910   15.6320 C   0  0  0  0  0  0  0  0  0  0  0  0
   -2.5080  -10.9230   21.3030 C   0  0  0  0  0  0  0  0  0  0  0  0
   -0.8440   -9.6400   14.8940 C   0  0  0  0  0  0  0  0  0  0  0  0
   -0.0770   -5.2910   15.5590 O   0  0  0  0  0  0  0  0  0  0  0  0
   -0.6380   -6.1240   16.6370 C   0  0  0  0  0  0  0  0  0  0  0  0
   -3.7770  -10.5440   19.2800 O   0  0  0  0  0  0  0  0  0  0  0  0
   -1.6850  -10.8630   14.6560 C   0  0  0  0  0  0  0  0  0  0  0  0
   -2.5750  -10.6050   17.2330 C   0  0  0  0  0  0  0  0  0  0  0  0
   -4.3980  -12.7250   16.6240 C   0  0  0  0  0  0  0  0  0  0  0  0
   -4.4630  -12.1370   17.8370 C   0  0  0  0  0  0  0  0  0  0  0  0
   -2.5640  -11.2060   15.8530 N   0  0  0  0  0  0  0  0  0  0  0  0
   -4.4670  -11.6750   20.2380 C   0  0  0  0  0  0  0  0  0  0  0  0
   -3.2340  -12.9100   14.6160 O   0  0  0  0  0  0  0  0  0  0  0  0
   -0.6220   -7.5870   16.1110 C   0  0  0  0  0  0  0  0  0  0  0  0
   -3.5580  -11.8240   21.3220 O   0  0  0  0  0  0  0  0  0  0  0  0
   -0.2620  -10.5140   22.2340 C   0  0  0  0  0  0  0  0  0  0  0  0
  1  3  1  0
  1 21  1  0
  2  1  2  0
  2 10  1  0
  3 11  1  0
  6 21  1  0
  7 13  1  0
  8 18  1  0
  8 16  1  0
  9 22  1  0
  9  4  1  0
 10  6  2  0
 11 12  1  0
 13 19  1  0
 14 10  1  0
 14 18  1  0
 15  7  1  0
 16 17  1  0
 17  7  2  0
 18 15  1  0
 19 22  1  0
 20  8  2  0
 21 12  2  0
 23  4  1  0
 23  5  1  0
M  END
$$$$

     RDKit          3D

 23 24  0  0  0  0  0  0  0  0999 V2000
   -3.7450  -11.3750   22.5120 N   0  0  0  0  0  0  0  0  0  0  0  0
   -2.6230  -10.6980   16.0140 N   0  0  0  0  0  0  0  0  0  0  0  0
   -3.8270  -11.2680   19.6680 C   0  0  0  0  0  0  0  0  0  0  0  0
   -0.3640   -9.1890   13.0950 C   0  0  0  0  0  0  0  0  0  0  0  0
    0.3520   -9.8380   12.3250 O   0  0  0  0  0  0  0  0  0  0  0  0
   -4.1900  -12.3970   17.5590 C   0  0  0  0  0  0  0  0  0  0  0  0
   -4.1740  -12.6430   16.2410 C   0  0  0  0  0  0  0  0  0  0  0  0
   -2.8470  -10.6300   20.3900 C   0  0  0  0  0  0  0  0  0  0  0  0
   -3.6500  -11.7990   14.2780 O   0  0  0  0  0  0  0  0  0  0  0  0
   -4.8330  -11.8830   20.4170 C   0  0  0  0  0  0  0  0  0  0  0  0
   -3.7550  -11.2110   18.2400 C   0  0  0  0  0  0  0  0  0  0  0  0
   -3.2390  -10.1560   17.2820 C   0  0  0  0  0  0  0  0  0  0  0  0
   -0.6840   -9.6690   21.4380 F   0  0  0  0  0  0  0  0  0  0  0  0
   -4.7970  -11.9520   21.7590 C   0  0  0  0  0  0  0  0  0  0  0  0
   -2.7720  -10.7420   21.7950 C   0  0  0  0  0  0  0  0  0  0  0  0
   -1.4410  -10.1540   15.2630 C   0  0  0  0  0  0  0  0  0  0  0  0
   -3.5060  -11.6350   15.4040 C   0  0  0  0  0  0  0  0  0  0  0  0
   -0.2440   -7.9940   13.2790 O   0  0  0  0  0  0  0  0  0  0  0  0
   -1.5850   -9.9090   13.7760 C   0  0  0  0  0  0  0  0  0  0  0  0
   -1.5850  -10.1120   22.3650 C   0  0  0  0  0  0  0  0  0  0  0  0
   -1.6110   -9.5860   23.5320 F   0  0  0  0  0  0  0  0  0  0  0  0
   -2.2310   -9.4690   17.9010 O   0  0  0  0  0  0  0  0  0  0  0  0
   -0.7880  -11.3780   22.9150 F   0  0  0  0  0  0  0  0  0  0  0  0
  2 12  1  0
  3  8  4  0
  3 10  4  0
  4 18  1  0
  4 19  1  0
  5  4  2  0
  6 11  1  0
  7  6  2  0
  8 15  4  0
  9 17  2  0
 10 14  4  0
 11  3  1  0
 12 22  1  0
 12 11  1  0
 13 20  1  0
 14  1  4  0
 15 20  1  0
 15  1  4  0
 16  2  1  0
 17  2  1  0
 17  7  1  0
 19 16  2  3
 20 23  1  0
 20 21  1  0
M  END
$$$$

     RDKit          3D

 33 36  0  0  0  0  0  0  0  0999 V2000
   -2.8470  -10.5800   19.3550 S   0  0  0  0  0  0  0  0  0  0  0  0
   -2.0640   -7.8180   24.8190 O   0  0  0  0  0  0  0  0  0  0  0  0
   -4.2600  -10.5450   22.8120 C   0  0  0  0  0  0  0  0  0  0  0  0
   -4.7500  -11.3430   21.6120 C   0  0  0  0  0  0  0  0  0  0  0  0
   -2.8380  -11.0190   16.4860 C   0  0  0  0  0  0  0  0  0  0  0  0
    0.4500  -10.0310   22.4540 C   0  0  0  0  0  0  0  0  0  0  0  0
   -2.3220   -8.5220   23.4100 P   0  0  0  0  0  0  0  0  0  0  0  0
   -0.2940   -9.0370   14.6180 C   0  0  0  0  0  0  0  0  0  0  0  0
   -4.6310  -12.1120   19.3790 N   0  0  0  0  0  0  0  0  0  0  0  0
   -5.8770  -11.9790   21.6850 O   0  0  0  0  0  0  0  0  0  0  0  0
   -1.8840  -10.0410   21.5590 C   0  0  0  0  0  0  0  0  0  0  0  0
    0.2860   -6.7790   14.3390 O   0  0  0  0  0  0  0  0  0  0  0  0
   -4.6020  -12.0960   15.0270 C   0  0  0  0  0  0  0  0  0  0  0  0
   -1.9600  -10.4180   15.3800 C   0  0  0  0  0  0  0  0  0  0  0  0
   -2.8750   -9.7750   22.6310 C   0  0  0  0  0  0  0  0  0  0  0  0
    1.2570   -6.9430   13.4220 C   0  0  0  0  0  0  0  0  0  0  0  0
   -4.0780  -11.3790   24.0150 C   0  0  0  0  0  0  0  0  0  0  0  0
   -0.6000   -7.2550   16.4800 C   0  0  0  0  0  0  0  0  0  0  0  0
   -2.0660   -9.8890   23.7400 O   0  0  0  0  0  0  0  0  0  0  0  0
   -2.9060  -11.2150   18.0860 C   0  0  0  0  0  0  0  0  0  0  0  0
   -2.5740   -7.3010   22.4640 O   0  0  0  0  0  0  0  0  0  0  0  0
    1.0430   -5.8140   12.3930 C   0  0  0  0  0  0  0  0  0  0  0  0
   -1.7960  -11.0780   14.3560 O   0  0  0  0  0  0  0  0  0  0  0  0
    0.4040   -7.7760   15.3790 C   0  0  0  0  0  0  0  0  0  0  0  0
   -3.4640  -12.1870   16.0010 C   0  0  0  0  0  0  0  0  0  0  0  0
   -3.9110  -12.1020   18.1360 O   0  0  0  0  0  0  0  0  0  0  0  0
   -4.0410  -11.1960   20.2480 C   0  0  0  0  0  0  0  0  0  0  0  0
   -0.6300   -9.2730   21.5570 C   0  0  0  0  0  0  0  0  0  0  0  0
   -1.5390   -9.1420   15.4330 N   0  0  0  0  0  0  0  0  0  0  0  0
    0.0960   -6.3150   17.3950 C   0  0  0  0  0  0  0  0  0  0  0  0
   -1.3990   -8.5180   16.8240 C   0  0  0  0  0  0  0  0  0  0  0  0
   -0.8540   -8.1550   20.5880 O   0  0  0  0  0  0  0  0  0  0  0  0
   -4.0320  -13.4000   15.6130 C   0  0  0  0  0  0  0  0  0  0  0  0
  1 27  1  0
  3 17  1  0
  4 10  1  0
  4  3  1  0
  5 14  1  0
  7 21  2  0
  7 19  1  0
  7  2  1  0
  8 24  1  0
  8 29  1  0
  9 27  2  0
 13 33  1  0
 13 25  1  0
 14 29  1  0
 15 11  1  0
 15  3  1  0
 15  7  1  0
 15 19  1  0
 16 12  1  0
 18 31  1  0
 18 30  1  0
 20  5  1  0
 20 26  1  0
 20  1  1  0
 22 16  1  0
 23 14  2  0
 24 12  1  0
 24 18  1  0
 25  5  1  0
 26  9  1  0
 27  4  1  0
 28 11  1  0
 28  6  1  0
 29 31  1  0
 32 28  1  0
 33 25  1  0
M  END
$$$$

     RDKit          3D

 25 25  0  0  0  0  0  0  0  0999 V2000
   -4.3270  -10.7820   20.6200 C   0  0  0  0  0  0  0  0  0  0  0  0
   -3.1710   -9.8960   18.6110 O   0  0  0  0  0  0  0  0  0  0  0  0
    0.3900   -7.3810   13.5640 C   0  0  0  0  0  0  0  0  0  0  0  0
   -3.5020  -11.9660   17.5390 C   0  0  0  0  0  0  0  0  0  0  0  0
    0.0160   -8.8190   13.3600 C   0  0  0  0  0  0  0  0  0  0  0  0
   -1.1420  -10.2120   14.9860 C   0  0  0  0  0  0  0  0  0  0  0  0
   -0.7550   -8.1520   15.9380 C   0  0  0  0  0  0  0  0  0  0  0  0
   -1.1050   -9.3210   15.9740 C   0  0  0  0  0  0  0  0  0  0  0  0
   -3.9380  -11.3810   21.6810 C   0  0  0  0  0  0  0  0  0  0  0  0
   -3.7220  -13.7540   16.0680 F   0  0  0  0  0  0  0  0  0  0  0  0
   -4.4640  -12.9430   16.8760 C   0  0  0  0  0  0  0  0  0  0  0  0
   -0.1630   -7.1210   15.1340 C   0  0  0  0  0  0  0  0  0  0  0  0
   -4.3230  -11.4290   19.6180 N   0  0  0  0  0  0  0  0  0  0  0  0
   -3.7340  -11.0240   18.6950 C   0  0  0  0  0  0  0  0  0  0  0  0
   -1.5070  -12.1510   14.8260 O   0  0  0  0  0  0  0  0  0  0  0  0
   -4.8240  -12.3720   22.1080 O   0  0  0  0  0  0  0  0  0  0  0  0
   -4.0870  -10.0220   21.1880 C   0  0  0  0  0  0  0  0  0  0  0  0
   -2.8750  -11.4150   16.3580 O   0  0  0  0  0  0  0  0  0  0  0  0
   -0.5260   -9.7870   13.6530 C   0  0  0  0  0  0  0  0  0  0  0  0
   -1.9100  -11.3920   15.4310 C   0  0  0  0  0  0  0  0  0  0  0  0
    1.5260   -6.5060   11.3500 C   0  0  0  0  0  0  0  0  0  0  0  0
    1.0660   -6.5950   12.7690 O   0  0  0  0  0  0  0  0  0  0  0  0
    1.9650   -7.7280   10.4720 C   0  0  0  0  0  0  0  0  0  0  0  0
   -4.9170  -13.5840   17.9260 F   0  0  0  0  0  0  0  0  0  0  0  0
   -5.4880  -12.2290   16.1190 F   0  0  0  0  0  0  0  0  0  0  0  0
  1 17  2  0
  1  9  1  0
  2 14  2  0
  3 12  1  0
  4 18  1  0
  4 14  1  0
  5  3  2  0
  5 19  1  0
  6 20  1  0
  6  8  1  0
  7  8  2  0
  9 16  1  0
 10 11  1  0
 11  4  1  0
 11 24  1  0
 12  7  1  0
 13  1  1  0
 14 13  1  0
 15 20  2  0
 19  6  2  0
 20 18  1  0
 21 22  1  0
 22  3  1  0
 23 21  1  0
 25 11  1  0
M  END
$$$$
