
     RDKit          3D

 28 31  0  0  0  0  0  0  0  0999 V2000
   -2.2360  -10.3840   22.2100 C   0  0  0  0  0  0  0  0  0  0  0  0
    0.6860   -6.9040   15.3700 C   0  0  0  0  0  0  0  0  0  0  0  0
   -5.0640  -11.4440   24.1390 O   0  0  0  0  0  0  0  0  0  0  0  0
   -3.9170  -12.5170   16.0860 C   0  0  0  0  0  0  0  0  0  0  0  0
   -3.1680  -10.5710   23.2530 C   0  0  0  0  0  0  0  0  0  0  0  0
   -4.1230  -10.3550   21.0990 C   0  0  0  0  0  0  0  0  0  0  0  0
   -3.9610  -10.8480   18.2440 S   0  0  0  0  0  0  0  0  0  0  0  0
   -4.8530  -11.7770   15.5240 F   0  0  0  0  0  0  0  0  0  0  0  0
   -4.3870  -13.3760   16.7920 F   0  0  0  0  0  0  0  0  0  0  0  0
   -1.4000   -8.1330   17.2480 O   0  0  0  0  0  0  0  0  0  0  0  0
   -2.7230   -9.9140   18.4540 C   0  0  0  0  0  0  0  0  0  0  0  0
    0.6910   -8.1920   13.0690 C   0  0  0  0  0  0  0  0  0  0  0  0
   -4.5120  -10.7490   23.1020 C   0  0  0  0  0  0  0  0  0  0  0  0
   -4.8150  -11.1990   21.9080 C   0  0  0  0  0  0  0  0  0  0  0  0
   -0.0410   -9.3000   13.1860 C   0  0  0  0  0  0  0  0  0  0  0  0
   -2.2490  -10.3320   17.0150 C   0  0  0  0  0  0  0  0  0  0  0  0
   -0.8910   -9.6840   14.0780 N   0  0  0  0  0  0  0  0  0  0  0  0
   -1.9410  -11.7590   16.6510 C   0  0  0  0  0  0  0  0  0  0  0  0
   -0.1220   -7.8220   15.3940 C   0  0  0  0  0  0  0  0  0  0  0  0
   -0.8330   -8.8520   15.1790 C   0  0  0  0  0  0  0  0  0  0  0  0
   -3.2130  -13.0850   15.1280 F   0  0  0  0  0  0  0  0  0  0  0  0
   -0.7110  -10.6540   22.5090 C   0  0  0  0  0  0  0  0  0  0  0  0
   -3.2820   -9.5070   24.1100 O   0  0  0  0  0  0  0  0  0  0  0  0
    0.7530   -7.2410   14.0090 C   0  0  0  0  0  0  0  0  0  0  0  0
   -3.2820  -11.6830   16.9370 C   0  0  0  0  0  0  0  0  0  0  0  0
   -1.7260   -9.1490   16.4100 C   0  0  0  0  0  0  0  0  0  0  0  0
   -2.8320  -10.1900   20.9460 C   0  0  0  0  0  0  0  0  0  0  0  0
   -1.9310   -9.6000   19.8400 C   0  0  0  0  0  0  0  0  0  0  0  0
  1 22  1  0
  1  5  1  0
  2 19  1  0
  4  9  1  0
  5 23  1  0
  6 14  1  0
  7 11  1  0
  8  4  1  0
 11 28  1  0
 12 15  2  0
 12 24  1  0
 13  5  1  0
 13  3  1  0
 14 13  1  0
 15 17  1  0
 16 26  1  0
 16 11  1  0
 17 20  2  0
 18 25  1  0
 18 16  1  0
 20 19  1  0
 20 26  1  0
 21  4  1  0
 24  2  1  0
 25  4  1  0
 25 16  1  0
 25  7  1  0
 26 10  1  0
 27 28  1  0
 27  6  1  0
 27  1  1  0
M  END
$$$$

     RDKit          3D

 31 35  0  0  0  0  0  0  0  0999 V2000
   -2.6030  -11.1480   15.8960 N   0  0  0  0  0  0  0  0  0  0  0  0
   -1.0850  -10.0310   14.2990 C   0  0  0  0  0  0  0  0  0  0  0  0
   -5.2920  -12.0760   23.4320 C   0  0  0  0  0  0  0  0  0  0  0  0
   -1.7250  -10.0540   15.5640 C   0  0  0  0  0  0  0  0  0  0  0  0
   -0.7560   -7.9640   16.2350 C   0  0  0  0  0  0  0  0  0  0  0  0
   -2.1150  -10.5200   21.8360 C   0  0  0  0  0  0  0  0  0  0  0  0
   -0.2430   -7.9090   14.8600 C   0  0  0  0  0  0  0  0  0  0  0  0
   -2.9160  -11.2140   22.9670 C   0  0  0  0  0  0  0  0  0  0  0  0
   -1.6120   -8.4370   19.1640 C   0  0  0  0  0  0  0  0  0  0  0  0
    0.8400   -6.9250   13.1330 N   0  0  0  0  0  0  0  0  0  0  0  0
   -3.8840  -12.4460   17.3260 C   0  0  0  0  0  0  0  0  0  0  0  0
   -5.2520  -12.3090   22.0570 C   0  0  0  0  0  0  0  0  0  0  0  0
   -2.5630   -8.3140   20.4240 C   0  0  0  0  0  0  0  0  0  0  0  0
   -5.9980  -12.5200   24.1990 N   0  0  0  0  0  0  0  0  0  0  0  0
   -2.5370  -10.3970   18.3640 C   0  0  0  0  0  0  0  0  0  0  0  0
   -1.4520   -9.1340   16.6630 C   0  0  0  0  0  0  0  0  0  0  0  0
   -3.1720  -12.1320   15.0830 N   0  0  0  0  0  0  0  0  0  0  0  0
   -2.9650   -9.8520   20.7660 C   0  0  0  0  0  0  0  0  0  0  0  0
    1.7660   -6.3470   12.1900 C   0  0  0  0  0  0  0  0  0  0  0  0
   -4.3750  -11.8420   20.9350 C   0  0  0  0  0  0  0  0  0  0  0  0
   -3.0510  -11.2840   17.1780 C   0  0  0  0  0  0  0  0  0  0  0  0
    0.3570   -6.7520   14.3400 C   0  0  0  0  0  0  0  0  0  0  0  0
   -0.5300  -10.3400   22.0010 C   0  0  0  0  0  0  0  0  0  0  0  0
   -0.3790   -8.9860   13.9310 C   0  0  0  0  0  0  0  0  0  0  0  0
   -1.8980   -9.2990   18.0020 N   0  0  0  0  0  0  0  0  0  0  0  0
   -2.8390  -10.8190   19.7010 O   0  0  0  0  0  0  0  0  0  0  0  0
    0.1200  -10.1210   22.7750 C   0  0  0  0  0  0  0  0  0  0  0  0
   -3.9270  -12.9550   15.9880 C   0  0  0  0  0  0  0  0  0  0  0  0
   -3.2060  -10.8020   21.5260 C   0  0  0  0  0  0  0  0  0  0  0  0
    0.5710   -5.7980   15.0150 O   0  0  0  0  0  0  0  0  0  0  0  0
   -4.2680  -11.1610   23.9200 N   0  0  0  0  0  0  0  0  0  0  0  0
  1 21  4  0
  2  4  4  0
  3 31  2  0
  3 14  1  0
  4  1  1  0
  4 16  4  0
  5 16  4  0
  6 23  1  0
  7  5  4  0
  9 13  1  0
 10 22  1  0
 12  3  1  0
 15 21  1  0
 15 26  1  0
 16 25  1  0
 17  1  4  0
 17 28  4  0
 18 13  1  0
 18 29  1  0
 18  6  1  0
 19 10  1  0
 20 29  1  0
 20 12  1  0
 21 11  4  0
 22  7  1  0
 22 30  2  0
 23 27  2  0
 24  2  4  0
 24  7  4  0
 25 15  1  0
 25  9  1  0
 26 18  1  0
 28 11  4  0
 29  6  1  0
 29  8  1  0
M  END
$$$$

     RDKit          3D

 23 26  0  0  0  0  0  0  0  0999 V2000
   -2.5950  -10.9190   16.5570 C   0  0  0  0  0  0  0  0  0  0  0  0
   -4.8150  -11.4900   21.0710 C   0  0  0  0  0  0  0  0  0  0  0  0
   -2.4120  -10.6590   20.7730 C   0  0  0  0  0  0  0  0  0  0  0  0
   -1.2270   -7.6010   21.5200 C   0  0  0  0  0  0  0  0  0  0  0  0
   -2.3060   -9.3180   20.2090 N   0  0  0  0  0  0  0  0  0  0  0  0
   -1.7290  -10.4220   14.4010 C   0  0  0  0  0  0  0  0  0  0  0  0
   -3.6410  -11.1300   20.1880 C   0  0  0  0  0  0  0  0  0  0  0  0
   -0.6010  -10.0320   13.5190 C   0  0  0  0  0  0  0  0  0  0  0  0
   -3.5260  -11.7290   15.9530 C   0  0  0  0  0  0  0  0  0  0  0  0
   -3.7600  -11.6730   14.6120 N   0  0  0  0  0  0  0  0  0  0  0  0
   -3.5870  -11.3270   18.7670 C   0  0  0  0  0  0  0  0  0  0  0  0
   -1.1960  -10.9970   21.5310 C   0  0  0  0  0  0  0  0  0  0  0  0
   -4.8460  -12.6310   21.6480 N   0  0  0  0  0  0  0  0  0  0  0  0
   -0.4060  -10.1690   22.7820 S   0  0  0  0  0  0  0  0  0  0  0  0
   -1.6070  -10.3280   15.8400 C   0  0  0  0  0  0  0  0  0  0  0  0
   -4.2180  -12.8320   16.8160 C   0  0  0  0  0  0  0  0  0  0  0  0
   -2.1560   -9.6800   18.7860 N   0  0  0  0  0  0  0  0  0  0  0  0
   -2.5060   -6.9760   21.0400 C   0  0  0  0  0  0  0  0  0  0  0  0
   -2.9310  -10.9370   13.8900 C   0  0  0  0  0  0  0  0  0  0  0  0
    0.0480   -8.6100   22.0710 C   0  0  0  0  0  0  0  0  0  0  0  0
   -2.7520  -10.6590   18.0450 C   0  0  0  0  0  0  0  0  0  0  0  0
   -5.6610  -10.7670   21.3710 O   0  0  0  0  0  0  0  0  0  0  0  0
   -2.4080   -8.4740   21.4600 C   0  0  0  0  0  0  0  0  0  0  0  0
  1 21  1  0
  2 22  2  0
  2 13  1  0
  3 12  1  0
  4 18  1  0
  4 20  1  0
  5  3  1  0
  5 23  1  0
  6  8  1  0
  6 15  1  0
  7  3  1  0
  7  2  1  0
  9  1  1  0
  9 16  1  0
 10  9  2  0
 11  7  1  0
 12 14  1  0
 15  1  2  0
 17  5  1  0
 19  6  1  0
 19 10  1  0
 20 14  1  0
 21 11  1  0
 21 17  2  0
 23 18  1  0
 23  4  1  0
M  END
$$$$

     RDKit          3D

 28 31  0  0  0  0  0  0  0  0999 V2000
   -1.7200   -9.6350   16.3450 C   0  0  0  0  0  0  0  0  0  0  0  0
   -1.6950   -9.6510   19.4790 C   0  0  0  0  0  0  0  0  0  0  0  0
   -3.7490  -12.2120   14.4790 N   0  0  0  0  0  0  0  0  0  0  0  0
   -3.0120  -11.6870   17.1450 C   0  0  0  0  0  0  0  0  0  0  0  0
   -2.6510  -11.1660   23.0510 C   0  0  0  0  0  0  0  0  0  0  0  0
   -0.1710  -11.0510   22.6970 C   0  0  0  0  0  0  0  0  0  0  0  0
    0.2830   -7.5230   16.0250 C   0  0  0  0  0  0  0  0  0  0  0  0
   -1.3470   -9.7960   20.8840 C   0  0  0  0  0  0  0  0  0  0  0  0
   -2.3120  -10.6180   16.8570 C   0  0  0  0  0  0  0  0  0  0  0  0
   -1.6380   -7.4050   17.0980 O   0  0  0  0  0  0  0  0  0  0  0  0
   -0.9790  -10.2360   13.8840 O   0  0  0  0  0  0  0  0  0  0  0  0
   -1.5180  -10.7110   22.0780 C   0  0  0  0  0  0  0  0  0  0  0  0
   -4.5510  -12.1840   20.3450 C   0  0  0  0  0  0  0  0  0  0  0  0
   -5.1380  -11.6370   22.8530 N   0  0  0  0  0  0  0  0  0  0  0  0
   -4.0940  -10.6080   22.6260 C   0  0  0  0  0  0  0  0  0  0  0  0
   -2.5580  -11.2460   18.0620 N   0  0  0  0  0  0  0  0  0  0  0  0
   -1.7180  -10.4530   15.0230 C   0  0  0  0  0  0  0  0  0  0  0  0
   -5.5710  -12.0040   21.3600 N   0  0  0  0  0  0  0  0  0  0  0  0
   -2.5220  -10.5200   19.2330 C   0  0  0  0  0  0  0  0  0  0  0  0
   -3.7790  -10.7220   20.0040 C   0  0  0  0  0  0  0  0  0  0  0  0
   -0.1180   -6.8790   16.9460 C   0  0  0  0  0  0  0  0  0  0  0  0
   -3.9440  -12.5510   16.7740 C   0  0  0  0  0  0  0  0  0  0  0  0
   -4.2670  -10.0340   21.1060 C   0  0  0  0  0  0  0  0  0  0  0  0
   -3.0430  -10.8410   14.2800 C   0  0  0  0  0  0  0  0  0  0  0  0
   -0.2750   -7.3950   17.7640 C   0  0  0  0  0  0  0  0  0  0  0  0
   -4.4030  -12.8400   15.5870 C   0  0  0  0  0  0  0  0  0  0  0  0
    1.0340   -7.0030   14.7740 C   0  0  0  0  0  0  0  0  0  0  0  0
   -0.4370   -9.0240   15.7410 O   0  0  0  0  0  0  0  0  0  0  0  0
  1 28  1  0
  1  9  1  0
  2  8  1  0
  3 26  1  0
  4 22  1  0
  4 16  1  0
  7 27  1  0
  7 21  1  0
  8 12  1  0
  9  4  1  0
  9 16  1  0
 10 25  1  0
 11 17  1  0
 12  6  1  0
 12  5  1  0
 13 18  1  0
 15 14  1  0
 15  5  1  0
 16 19  1  0
 17  1  1  0
 18 14  1  0
 19  2  1  0
 19 20  1  0
 20 13  1  0
 20 23  1  0
 21 25  1  0
 23 15  1  0
 24  3  1  0
 24 17  1  0
 26 22  2  3
 28  7  1  0
M  END
$$$$

     RDKit          3D

 29 32  0  0  0  0  0  0  0  0999 V2000
    1.1330   -7.0660   12.4870 C   0  0  0  0  0  0  0  0  0  0  0  0
   -3.8620  -11.3030   20.8820 C   0  0  0  0  0  0  0  0  0  0  0  0
   -2.5970  -12.7690   15.9100 C   0  0  0  0  0  0  0  0  0  0  0  0
   -1.5990  -10.8440   14.6850 C   0  0  0  0  0  0  0  0  0  0  0  0
   -3.3110  -11.4240   22.3910 C   0  0  0  0  0  0  0  0  0  0  0  0
   -1.1750  -10.7540   13.3970 C   0  0  0  0  0  0  0  0  0  0  0  0
   -5.1390  -11.1570   20.7570 O   0  0  0  0  0  0  0  0  0  0  0  0
   -4.3370  -10.8390   23.4670 C   0  0  0  0  0  0  0  0  0  0  0  0
    0.5010   -6.3290   13.6250 C   0  0  0  0  0  0  0  0  0  0  0  0
   -3.9500  -12.3370   17.8880 C   0  0  0  0  0  0  0  0  0  0  0  0
   -3.2970  -10.1580   24.3490 O   0  0  0  0  0  0  0  0  0  0  0  0
   -5.3510  -12.1230   18.1480 O   0  0  0  0  0  0  0  0  0  0  0  0
   -2.3300  -12.0810   14.8480 O   0  0  0  0  0  0  0  0  0  0  0  0
    1.4280   -7.9880   11.1770 C   0  0  0  0  0  0  0  0  0  0  0  0
    0.7790   -7.7900   13.4620 N   0  0  0  0  0  0  0  0  0  0  0  0
   -4.3220  -10.5170   25.0710 C   0  0  0  0  0  0  0  0  0  0  0  0
   -4.9630  -11.9540   15.7380 O   0  0  0  0  0  0  0  0  0  0  0  0
   -3.9300  -12.2100   16.3980 C   0  0  0  0  0  0  0  0  0  0  0  0
   -2.7300  -11.2610   19.9640 C   0  0  0  0  0  0  0  0  0  0  0  0
   -2.1840  -10.5410   22.4530 C   0  0  0  0  0  0  0  0  0  0  0  0
   -1.1120  -10.7290   23.4160 C   0  0  0  0  0  0  0  0  0  0  0  0
   -1.3330   -9.7810   15.6060 C   0  0  0  0  0  0  0  0  0  0  0  0
   -0.4290   -9.6550   13.0860 C   0  0  0  0  0  0  0  0  0  0  0  0
   -2.7830  -11.7430   18.5590 C   0  0  0  0  0  0  0  0  0  0  0  0
   -1.5940  -11.0150   20.9640 C   0  0  0  0  0  0  0  0  0  0  0  0
   -0.1040   -8.6700   13.8950 C   0  0  0  0  0  0  0  0  0  0  0  0
   -1.5370  -12.0310   18.1200 O   0  0  0  0  0  0  0  0  0  0  0  0
   -0.5220   -8.7220   15.2250 C   0  0  0  0  0  0  0  0  0  0  0  0
    0.1870  -10.4000   22.8440 C   0  0  0  0  0  0  0  0  0  0  0  0
  1 14  1  0
  1 15  1  0
  1  9  1  0
  2  7  1  0
  2  5  1  0
  3 18  1  0
  4 13  1  0
  4 22  4  0
  5 20  1  0
  5  8  1  0
  6  4  4  0
  8 11  1  0
  8 16  1  0
 10 12  1  0
 10 24  1  0
 11 16  1  0
 13  3  1  0
 15  9  1  0
 15 26  1  0
 17 18  2  0
 18 10  1  0
 19 24  1  0
 19  2  1  0
 19 25  1  0
 20 21  1  0
 23  6  4  0
 23 26  4  0
 24 27  1  0
 25 20  1  0
 26 28  4  0
 28 22  4  0
 29 21  1  0
M  END
$$$$

     RDKit          3D

 21 25  0  0  0  0  0  0  0  0999 V2000
   -4.2550  -10.3710   23.6120 C   0  0  0  0  0  0  0  0  0  0  0  0
   -2.5870  -10.5410   20.4180 C   0  0  0  0  0  0  0  0  0  0  0  0
   -1.5080   -9.5280   16.1020 C   0  0  0  0  0  0  0  0  0  0  0  0
   -3.6890  -11.6660   15.7760 C   0  0  0  0  0  0  0  0  0  0  0  0
   -3.9020  -13.0730   16.1870 C   0  0  0  0  0  0  0  0  0  0  0  0
   -3.9500  -11.0970   22.3770 C   0  0  0  0  0  0  0  0  0  0  0  0
   -3.7420  -11.7190   18.2370 C   0  0  0  0  0  0  0  0  0  0  0  0
   -1.1610  -10.6540   22.8500 Cl  0  0  0  0  0  0  0  0  0  0  0  0
   -3.5320  -11.1970   19.6520 C   0  0  0  0  0  0  0  0  0  0  0  0
   -1.9890   -9.9880   17.3190 C   0  0  0  0  0  0  0  0  0  0  0  0
   -1.8660  -10.2390   14.9490 N   0  0  0  0  0  0  0  0  0  0  0  0
   -3.3040  -10.8230   17.0350 C   0  0  0  0  0  0  0  0  0  0  0  0
   -2.5370  -11.4700   14.9060 N   0  0  0  0  0  0  0  0  0  0  0  0
   -0.4140   -7.5400   17.1720 C   0  0  0  0  0  0  0  0  0  0  0  0
   -1.8880   -8.9640   18.6140 C   0  0  0  0  0  0  0  0  0  0  0  0
   -2.6510  -10.7050   21.8590 C   0  0  0  0  0  0  0  0  0  0  0  0
   -4.7050  -11.7400   20.8300 S   0  0  0  0  0  0  0  0  0  0  0  0
   -1.5530   -9.5970   19.9040 C   0  0  0  0  0  0  0  0  0  0  0  0
   -0.8970   -7.8090   18.4490 C   0  0  0  0  0  0  0  0  0  0  0  0
   -0.6160   -8.3650   16.0300 C   0  0  0  0  0  0  0  0  0  0  0  0
   -4.5040  -12.9090   17.7030 C   0  0  0  0  0  0  0  0  0  0  0  0
  2 18  1  0
  2 16  1  0
  4  5  1  0
  4 12  1  0
  5 21  1  0
  6  1  1  0
  7 21  1  0
  7  9  1  0
  9  2  1  0
  9 17  1  0
 10  3  1  0
 10 15  1  0
 11  3  2  0
 12 10  1  0
 12  7  1  0
 13 11  1  0
 13  4  1  0
 14 19  2  0
 15 18  1  0
 16  6  1  0
 16  8  1  0
 17  6  1  0
 19 15  1  0
 20  3  1  0
 20 14  1  0
M  END
$$$$

     RDKit          3D

 18 19  0  0  0  0  0  0  0  0999 V2000
   -0.8710   -8.3610   16.9250 C   0  0  0  0  0  0  0  0  0  0  0  0
   -3.1400   -9.3850   20.2380 F   0  0  0  0  0  0  0  0  0  0  0  0
   -4.0590  -11.6080   14.6470 C   0  0  0  0  0  0  0  0  0  0  0  0
   -2.1520  -10.1500   19.9120 O   0  0  0  0  0  0  0  0  0  0  0  0
   -2.9150  -11.1620   18.1800 C   0  0  0  0  0  0  0  0  0  0  0  0
   -0.5030   -8.7230   15.5140 C   0  0  0  0  0  0  0  0  0  0  0  0
   -4.3150  -12.8290   15.6290 C   0  0  0  0  0  0  0  0  0  0  0  0
   -4.0930  -11.5830   19.1870 C   0  0  0  0  0  0  0  0  0  0  0  0
   -2.6340  -11.5150   14.7400 O   0  0  0  0  0  0  0  0  0  0  0  0
   -2.1830  -10.4810   15.6670 C   0  0  0  0  0  0  0  0  0  0  0  0
   -2.4280  -10.1490   17.0170 C   0  0  0  0  0  0  0  0  0  0  0  0
   -3.3720  -12.2080   17.1250 C   0  0  0  0  0  0  0  0  0  0  0  0
   -3.8170  -12.1690   20.2550 C   0  0  0  0  0  0  0  0  0  0  0  0
   -1.8460   -9.1220   17.6280 C   0  0  0  0  0  0  0  0  0  0  0  0
   -3.3540  -12.8860   16.6090 O   0  0  0  0  0  0  0  0  0  0  0  0
   -2.2920  -11.5310   20.1680 C   0  0  0  0  0  0  0  0  0  0  0  0
    0.4480   -8.0650   14.8410 O   0  0  0  0  0  0  0  0  0  0  0  0
   -1.2410   -9.7580   14.9430 C   0  0  0  0  0  0  0  0  0  0  0  0
  1 14  4  0
  3  9  1  0
  3  7  1  0
  4 16  1  0
  4  2  1  0
  5  8  1  0
  6  1  4  0
  7 15  1  0
  8 13  1  0
  9 10  1  0
 10 11  4  0
 11 14  4  0
 11  5  1  0
 12  5  1  0
 15 12  1  0
 16 13  1  0
 17  6  1  0
 18  6  4  0
 18 10  4  0
M  END
$$$$

     RDKit          3D

 22 22  0  0  0  0  0  0  0  0999 V2000
   -0.3680   -9.4150   15.4790 C   0  0  0  0  0  0  0  0  0  0  0  0
   -2.4670  -10.0370   20.5700 O   0  0  0  0  0  0  0  0  0  0  0  0
   -0.9650  -10.4030   22.6950 C   0  0  0  0  0  0  0  0  0  0  0  0
   -4.2330  -12.3600   17.3330 C   0  0  0  0  0  0  0  0  0  0  0  0
   -0.1240  -10.3900   23.8100 F   0  0  0  0  0  0  0  0  0  0  0  0
   -1.9380   -8.3120   13.8390 C   0  0  0  0  0  0  0  0  0  0  0  0
   -0.9600   -9.5160   14.0830 C   0  0  0  0  0  0  0  0  0  0  0  0
   -4.0140  -12.4330   16.0310 C   0  0  0  0  0  0  0  0  0  0  0  0
   -2.3220  -10.3650   17.0030 C   0  0  0  0  0  0  0  0  0  0  0  0
   -4.6580  -13.3410   15.3310 F   0  0  0  0  0  0  0  0  0  0  0  0
   -3.3470  -11.7390   15.2620 N   0  0  0  0  0  0  0  0  0  0  0  0
   -2.2330   -8.8520   21.3710 C   0  0  0  0  0  0  0  0  0  0  0  0
   -2.6650  -10.7190   15.7750 C   0  0  0  0  0  0  0  0  0  0  0  0
   -3.4680   -8.0200   21.4150 C   0  0  0  0  0  0  0  0  0  0  0  0
   -3.7720  -11.6580   18.3780 C   0  0  0  0  0  0  0  0  0  0  0  0
    0.1630   -9.3200   13.0240 C   0  0  0  0  0  0  0  0  0  0  0  0
   -0.5180  -11.1230   21.4700 F   0  0  0  0  0  0  0  0  0  0  0  0
   -2.1410  -10.9330   22.9940 F   0  0  0  0  0  0  0  0  0  0  0  0
   -2.8570   -9.7530   19.3510 N   0  0  0  0  0  0  0  0  0  0  0  0
   -2.9720  -10.5740   18.2430 C   0  0  0  0  0  0  0  0  0  0  0  0
   -1.1270   -8.9880   22.2360 C   0  0  0  0  0  0  0  0  0  0  0  0
   -1.1630   -9.4790   16.8340 S   0  0  0  0  0  0  0  0  0  0  0  0
  1 22  1  0
  2 12  1  0
  3 18  1  0
  3  5  1  0
  4 15  2  0
  6  7  1  0
  7  1  1  0
  8  4  1  0
  9 22  1  0
  9 20  1  0
 10  8  1  0
 11 13  1  0
 11  8  2  0
 12 14  1  0
 12 21  1  0
 13  9  1  0
 16  7  1  0
 17  3  1  0
 19  2  1  0
 20 15  1  0
 20 19  2  3
 21  3  1  0
M  END
$$$$

     RDKit          3D

 18 18  0  0  0  0  0  0  0  0999 V2000
   -1.4640  -10.4570   14.5840 C   0  0  0  0  0  0  0  0  0  0  0  0
   -0.7310   -8.5540   15.9030 C   0  0  0  0  0  0  0  0  0  0  0  0
   -4.6650  -11.9900   21.6280 O   0  0  0  0  0  0  0  0  0  0  0  0
   -1.3620   -9.8900   15.8360 C   0  0  0  0  0  0  0  0  0  0  0  0
   -3.1830  -11.1990   19.0670 C   0  0  0  0  0  0  0  0  0  0  0  0
   -0.2600   -7.6690   15.8290 N   0  0  0  0  0  0  0  0  0  0  0  0
   -0.0200   -6.4550   16.3340 C   0  0  0  0  0  0  0  0  0  0  0  0
   -5.2520  -10.1440   21.1530 O   0  0  0  0  0  0  0  0  0  0  0  0
   -4.5660  -12.0240   18.2040 O   0  0  0  0  0  0  0  0  0  0  0  0
   -1.5900   -7.9550   17.0660 C   0  0  0  0  0  0  0  0  0  0  0  0
   -0.6860  -10.0910   13.6040 N   0  0  0  0  0  0  0  0  0  0  0  0
   -4.1900  -10.5310   19.7270 C   0  0  0  0  0  0  0  0  0  0  0  0
   -2.3790  -11.4400   14.3770 N   0  0  0  0  0  0  0  0  0  0  0  0
   -3.2450  -11.4590   17.8850 N   0  0  0  0  0  0  0  0  0  0  0  0
   -3.2110  -11.8020   15.4450 C   0  0  0  0  0  0  0  0  0  0  0  0
   -4.6260  -11.0170   21.0940 C   0  0  0  0  0  0  0  0  0  0  0  0
   -3.0040  -11.1450   16.7360 C   0  0  0  0  0  0  0  0  0  0  0  0
   -1.9860  -10.2690   16.7880 C   0  0  0  0  0  0  0  0  0  0  0  0
  1  4  1  0
  2 10  1  0
  4  2  1  0
  4 18  1  0
  5 12  1  0
  6  2  2  3
  6  7  1  0
 11  1  1  0
 12 16  1  0
 13  1  2  0
 13 15  1  0
 14  9  1  0
 14  5  1  0
 15 17  1  0
 16  8  2  0
 16  3  1  0
 17 18  2  0
 17 14  1  0
M  END
$$$$

     RDKit          3D

 23 25  0  0  0  0  0  0  0  0999 V2000
   -3.3650  -10.9390   21.0980 C   0  0  0  0  0  0  0  0  0  0  0  0
   -4.4730  -12.8380   16.1020 C   0  0  0  0  0  0  0  0  0  0  0  0
   -1.1590  -11.7140   23.7660 F   0  0  0  0  0  0  0  0  0  0  0  0
   -1.5370   -8.2530   18.0310 C   0  0  0  0  0  0  0  0  0  0  0  0
   -0.3910   -9.9180   13.2220 N   0  0  0  0  0  0  0  0  0  0  0  0
   -2.5020  -10.5400   20.1540 C   0  0  0  0  0  0  0  0  0  0  0  0
   -1.4020   -9.5910   23.7700 F   0  0  0  0  0  0  0  0  0  0  0  0
   -3.4840  -11.9340   15.3230 O   0  0  0  0  0  0  0  0  0  0  0  0
   -3.0220  -11.0950   16.2950 C   0  0  0  0  0  0  0  0  0  0  0  0
   -1.2120  -10.1020   20.6110 C   0  0  0  0  0  0  0  0  0  0  0  0
   -1.6890  -10.0490   13.9470 C   0  0  0  0  0  0  0  0  0  0  0  0
   -1.4360   -9.4100   15.3380 C   0  0  0  0  0  0  0  0  0  0  0  0
   -3.0730  -11.0170   22.5670 C   0  0  0  0  0  0  0  0  0  0  0  0
   -1.7410  -10.7730   23.0040 C   0  0  0  0  0  0  0  0  0  0  0  0
   -2.2170  -10.0200   16.3520 N   0  0  0  0  0  0  0  0  0  0  0  0
    0.1610   -8.6290   13.0310 C   0  0  0  0  0  0  0  0  0  0  0  0
   -4.2560  -12.4840   17.5520 C   0  0  0  0  0  0  0  0  0  0  0  0
    0.5480   -7.3850   13.2600 C   0  0  0  0  0  0  0  0  0  0  0  0
    0.5200  -10.1910   22.1860 F   0  0  0  0  0  0  0  0  0  0  0  0
   -2.1120   -9.5770   17.6080 C   0  0  0  0  0  0  0  0  0  0  0  0
   -2.7820  -10.5560   18.6390 C   0  0  0  0  0  0  0  0  0  0  0  0
   -3.4130  -11.4300   17.6190 C   0  0  0  0  0  0  0  0  0  0  0  0
   -0.7820  -10.3780   21.8670 C   0  0  0  0  0  0  0  0  0  0  0  0
  1 13  1  0
  2 17  4  0
  5 11  1  0
  6 10  1  0
  6  1  2  0
  8  2  4  0
  8  9  4  0
  9 15  4  0
  9 22  4  0
 10 23  1  0
 11 12  1  0
 12 15  1  0
 13 14  1  0
 14  3  1  0
 14  7  1  0
 15 20  4  0
 16  5  1  0
 16 18  1  0
 17 22  4  0
 20  4  1  0
 20 21  4  0
 21  6  1  0
 22 21  4  0
 23 19  1  0
 23 14  1  0
M  END
$$$$

     RDKit          3D

 19 21  0  0  0  0  0  0  0  0999 V2000
    0.1880   -9.8320   21.9940 C   0  0  0  0  0  0  0  0  0  0  0  0
   -1.7390  -10.2890   15.8970 N   0  0  0  0  0  0  0  0  0  0  0  0
   -1.4560   -9.2650   18.0140 N   0  0  0  0  0  0  0  0  0  0  0  0
   -3.8920  -11.8600   17.7480 C   0  0  0  0  0  0  0  0  0  0  0  0
   -3.0330  -10.7310   18.1220 C   0  0  0  0  0  0  0  0  0  0  0  0
   -3.6880  -11.6690   15.3570 N   0  0  0  0  0  0  0  0  0  0  0  0
   -1.8890  -10.2020   21.1220 O   0  0  0  0  0  0  0  0  0  0  0  0
   -3.1390   -9.9430   19.3930 C   0  0  0  0  0  0  0  0  0  0  0  0
   -3.2090  -10.5200   20.8330 C   0  0  0  0  0  0  0  0  0  0  0  0
   -3.8500  -12.3470   16.2140 C   0  0  0  0  0  0  0  0  0  0  0  0
   -4.3280   -9.8430   21.6630 C   0  0  0  0  0  0  0  0  0  0  0  0
   -1.9230   -9.1930   19.2580 N   0  0  0  0  0  0  0  0  0  0  0  0
   -0.8090   -9.5930   15.2270 C   0  0  0  0  0  0  0  0  0  0  0  0
   -1.5890  -11.0030   23.2070 O   0  0  0  0  0  0  0  0  0  0  0  0
   -4.2500  -13.5830   15.9520 C   0  0  0  0  0  0  0  0  0  0  0  0
   -2.0010  -10.1440   17.2720 C   0  0  0  0  0  0  0  0  0  0  0  0
   -1.1810  -10.5010   14.1930 C   0  0  0  0  0  0  0  0  0  0  0  0
   -1.1500  -10.4390   22.2500 C   0  0  0  0  0  0  0  0  0  0  0  0
   -0.6380   -9.4640   13.8960 C   0  0  0  0  0  0  0  0  0  0  0  0
  1 18  1  0
  2 16  1  0
  3 12  1  0
  4  5  2  3
  5  8  1  0
  6 10  2  0
  7 18  1  0
  8  9  1  0
  9  7  1  0
  9 11  1  0
 10  4  1  0
 12  8  1  0
 13 19  1  0
 13  2  1  0
 15 10  1  0
 16  3  2  0
 16  5  1  0
 17 19  1  0
 17 13  1  0
 17  2  1  0
 18 14  2  0
M  END
$$$$

     RDKit          3D

 22 25  0  0  0  0  0  0  0  0999 V2000
   -5.1350  -12.3530   21.6020 C   0  0  0  0  0  0  0  0  0  0  0  0
   -4.3860  -10.5420   22.7080 N   0  0  0  0  0  0  0  0  0  0  0  0
   -1.7160  -10.5560   14.1440 C   0  0  0  0  0  0  0  0  0  0  0  0
    0.0640   -7.6460   18.6650 N   0  0  0  0  0  0  0  0  0  0  0  0
   -2.4380   -8.1410   21.7310 Cl  0  0  0  0  0  0  0  0  0  0  0  0
   -5.3190  -11.5040   22.6960 N   0  0  0  0  0  0  0  0  0  0  0  0
   -1.2190   -9.7730   15.1920 C   0  0  0  0  0  0  0  0  0  0  0  0
   -2.6420   -9.7760   21.0490 C   0  0  0  0  0  0  0  0  0  0  0  0
   -1.0490   -9.1520   17.5780 C   0  0  0  0  0  0  0  0  0  0  0  0
   -1.3920   -9.3450   18.8900 N   0  0  0  0  0  0  0  0  0  0  0  0
   -0.1490   -8.2110   17.4060 C   0  0  0  0  0  0  0  0  0  0  0  0
   -2.6250  -11.4470   14.4140 N   0  0  0  0  0  0  0  0  0  0  0  0
   -1.5650  -10.0260   16.4910 C   0  0  0  0  0  0  0  0  0  0  0  0
   -2.4720  -11.0830   16.7430 C   0  0  0  0  0  0  0  0  0  0  0  0
   -2.6930  -11.7030   17.9500 O   0  0  0  0  0  0  0  0  0  0  0  0
   -2.5960  -11.5460   19.3340 C   0  0  0  0  0  0  0  0  0  0  0  0
   -3.6150  -10.6790   21.5750 C   0  0  0  0  0  0  0  0  0  0  0  0
   -2.5190  -10.0010   19.5720 C   0  0  0  0  0  0  0  0  0  0  0  0
   -3.1500  -11.6530   15.6360 C   0  0  0  0  0  0  0  0  0  0  0  0
   -4.3930  -12.6010   15.7900 C   0  0  0  0  0  0  0  0  0  0  0  0
   -4.0360  -11.8260   20.7690 C   0  0  0  0  0  0  0  0  0  0  0  0
   -0.4870   -8.5760   19.4930 C   0  0  0  0  0  0  0  0  0  0  0  0
  1  6  2  0
  3 12  1  0
  3  7  2  0
  4 22  1  0
  6  2  1  0
  7 13  1  0
  8 17  1  0
  8  5  1  0
  9 10  1  0
 10 22  1  0
 10 18  1  0
 11  9  1  0
 11  4  1  0
 12 19  2  0
 13 14  1  0
 13  9  2  0
 14 19  1  0
 14 15  1  0
 15 16  1  0
 16 18  1  0
 17  2  2  0
 18  8  1  0
 19 20  1  0
 21 17  1  0
 21  1  1  0
M  END
$$$$

     RDKit          3D

 24 24  0  0  0  0  0  0  0  0999 V2000
   -2.4060  -10.8390   19.5300 N   0  0  0  0  0  0  0  0  0  0  0  0
   -4.6260  -12.4890   15.9550 C   0  0  0  0  0  0  0  0  0  0  0  0
   -0.4250   -6.9280   16.8690 C   0  0  0  0  0  0  0  0  0  0  0  0
   -2.4250  -11.0930   16.7050 C   0  0  0  0  0  0  0  0  0  0  0  0
   -1.0700   -8.7910   15.5900 N   0  0  0  0  0  0  0  0  0  0  0  0
   -0.7770   -9.7290   23.6610 O   0  0  0  0  0  0  0  0  0  0  0  0
   -1.8190  -10.6940   14.2910 N   0  0  0  0  0  0  0  0  0  0  0  0
   -0.3300   -8.3500   16.7460 C   0  0  0  0  0  0  0  0  0  0  0  0
   -3.7940  -11.9330   14.9170 C   0  0  0  0  0  0  0  0  0  0  0  0
    0.0790   -9.3440   13.7240 O   0  0  0  0  0  0  0  0  0  0  0  0
    0.2170  -10.0470   22.6310 C   0  0  0  0  0  0  0  0  0  0  0  0
   -0.8280   -9.6630   14.4730 C   0  0  0  0  0  0  0  0  0  0  0  0
   -3.2080  -11.6890   17.6010 C   0  0  0  0  0  0  0  0  0  0  0  0
   -2.8890  -11.0220   23.6990 O   0  0  0  0  0  0  0  0  0  0  0  0
   -2.2400   -9.9660   21.7840 C   0  0  0  0  0  0  0  0  0  0  0  0
   -4.3340  -12.3150   17.2140 C   0  0  0  0  0  0  0  0  0  0  0  0
   -2.4320  -10.3380   13.2670 O   0  0  0  0  0  0  0  0  0  0  0  0
   -3.7380  -11.8790   21.1030 O   0  0  0  0  0  0  0  0  0  0  0  0
   -2.0170  -10.3530   23.0690 C   0  0  0  0  0  0  0  0  0  0  0  0
   -2.6610  -11.2500   15.2970 C   0  0  0  0  0  0  0  0  0  0  0  0
   -2.7370  -11.7870   18.9180 O   0  0  0  0  0  0  0  0  0  0  0  0
   -2.7410  -10.9510   20.9200 C   0  0  0  0  0  0  0  0  0  0  0  0
   -1.7990   -6.9890   17.2070 C   0  0  0  0  0  0  0  0  0  0  0  0
    0.0150   -6.3790   15.6660 C   0  0  0  0  0  0  0  0  0  0  0  0
  1 22  1  0
  2 16  4  0
  3 23  1  0
  4 13  4  0
  5  8  1  0
  7 12  1  0
  7 20  1  0
  8  3  1  0
  9 20  4  0
  9  2  4  0
 10 12  2  0
 11  6  1  0
 12  5  1  0
 13 21  1  0
 15 19  1  0
 16 13  4  0
 17  7  1  0
 19  6  1  0
 19 14  2  0
 20  4  4  0
 21  1  1  0
 22 18  2  0
 22 15  1  0
 24  3  1  0
M  END
$$$$

     RDKit          3D

 16 16  0  0  0  0  0  0  0  0999 V2000
   -1.4880  -10.0210   15.3250 C   0  0  0  0  0  0  0  0  0  0  0  0
   -3.4830  -11.2650   19.8740 C   0  0  0  0  0  0  0  0  0  0  0  0
   -0.3930   -9.2400   14.7740 C   0  0  0  0  0  0  0  0  0  0  0  0
   -2.2770  -10.9340   22.1070 C   0  0  0  0  0  0  0  0  0  0  0  0
   -0.9310  -11.2210   21.7860 O   0  0  0  0  0  0  0  0  0  0  0  0
   -2.4340  -11.0560   17.4640 N   0  0  0  0  0  0  0  0  0  0  0  0
   -1.8290   -9.7500   19.4050 O   0  0  0  0  0  0  0  0  0  0  0  0
   -1.0990  -10.3400   16.7950 C   0  0  0  0  0  0  0  0  0  0  0  0
   -4.1170  -11.3140   14.8290 C   0  0  0  0  0  0  0  0  0  0  0  0
   -2.8570  -12.2970   16.7250 C   0  0  0  0  0  0  0  0  0  0  0  0
   -4.6330  -11.4280   19.5190 O   0  0  0  0  0  0  0  0  0  0  0  0
   -2.4670  -10.8510   18.8980 C   0  0  0  0  0  0  0  0  0  0  0  0
   -3.0560  -11.5100   21.1770 N   0  0  0  0  0  0  0  0  0  0  0  0
   -2.4880  -10.5760   23.1940 O   0  0  0  0  0  0  0  0  0  0  0  0
   -2.7710  -11.9920   15.2140 C   0  0  0  0  0  0  0  0  0  0  0  0
   -1.8220  -11.2380   14.6450 N   0  0  0  0  0  0  0  0  0  0  0  0
  1  3  1  0
  1  8  1  0
  2 13  1  0
  4 14  1  0
  5  4  2  0
  6 12  1  0
  8  6  1  0
 10  6  1  0
 11  2  2  0
 12  7  2  0
 12  2  1  0
 13  4  1  0
 15  9  1  0
 15 10  1  0
 16 15  1  0
 16  1  1  0
M  END
$$$$

     RDKit          3D

 14 15  0  0  0  0  0  0  0  0999 V2000
   -4.1580  -12.3600   15.2270 C   0  0  0  0  0  0  0  0  0  0  0  0
   -0.5310   -9.3680   14.1410 C   0  0  0  0  0  0  0  0  0  0  0  0
   -4.4200  -12.5060   16.3370 C   0  0  0  0  0  0  0  0  0  0  0  0
   -2.4270  -10.6860   15.0220 C   0  0  0  0  0  0  0  0  0  0  0  0
   -4.0650  -11.8460   17.4310 C   0  0  0  0  0  0  0  0  0  0  0  0
   -3.1770  -11.6310   14.6130 N   0  0  0  0  0  0  0  0  0  0  0  0
   -3.9700  -11.0970   19.6440 N   0  0  0  0  0  0  0  0  0  0  0  0
    0.1600   -8.9780   12.8820 C   0  0  0  0  0  0  0  0  0  0  0  0
   -1.4610  -10.2830   14.0570 N   0  0  0  0  0  0  0  0  0  0  0  0
   -3.3600  -10.3500   18.8630 N   0  0  0  0  0  0  0  0  0  0  0  0
   -4.4170  -12.0460   18.8480 C   0  0  0  0  0  0  0  0  0  0  0  0
   -0.2870   -8.7280   15.1410 O   0  0  0  0  0  0  0  0  0  0  0  0
   -3.3140  -10.7260   17.5030 C   0  0  0  0  0  0  0  0  0  0  0  0
   -2.5980  -10.1670   16.3410 C   0  0  0  0  0  0  0  0  0  0  0  0
  1  3  1  0
  2 12  2  0
  3  5  2  0
  4 14  1  0
  5 13  1  0
  5 11  1  0
  6  4  2  0
  6  1  1  0
  8  2  1  0
  9  2  1  0
  9  4  1  0
 10  7  1  0
 11  7  2  0
 13 10  2  0
 14 13  1  0
M  END
$$$$

     RDKit          3D

 19 22  0  0  0  0  0  0  0  0999 V2000
   -1.3430   -9.3720   16.2390 C   0  0  0  0  0  0  0  0  0  0  0  0
   -0.2300  -10.7320   23.3210 Cl  0  0  0  0  0  0  0  0  0  0  0  0
   -2.6600  -10.9720   17.7690 C   0  0  0  0  0  0  0  0  0  0  0  0
   -1.0650   -9.2930   14.9120 O   0  0  0  0  0  0  0  0  0  0  0  0
   -0.5270   -9.7190   20.8080 C   0  0  0  0  0  0  0  0  0  0  0  0
   -4.5390  -12.1200   18.8380 C   0  0  0  0  0  0  0  0  0  0  0  0
   -3.7480  -11.9050   17.6660 C   0  0  0  0  0  0  0  0  0  0  0  0
   -1.7930  -10.3920   14.2620 C   0  0  0  0  0  0  0  0  0  0  0  0
   -3.3810  -12.1040   15.2950 N   0  0  0  0  0  0  0  0  0  0  0  0
   -2.0900  -10.5950   19.1950 C   0  0  0  0  0  0  0  0  0  0  0  0
   -3.9980  -12.4270   16.4140 C   0  0  0  0  0  0  0  0  0  0  0  0
   -2.2130  -11.1500   21.6050 C   0  0  0  0  0  0  0  0  0  0  0  0
   -2.4860  -11.1140   15.3500 C   0  0  0  0  0  0  0  0  0  0  0  0
   -4.1490  -11.7560   20.0620 N   0  0  0  0  0  0  0  0  0  0  0  0
   -1.0270   -9.7270   19.4860 C   0  0  0  0  0  0  0  0  0  0  0  0
   -1.0800  -10.5130   21.8140 C   0  0  0  0  0  0  0  0  0  0  0  0
   -0.9400   -8.3960   17.0380 N   0  0  0  0  0  0  0  0  0  0  0  0
   -2.8570  -11.1540   20.2560 C   0  0  0  0  0  0  0  0  0  0  0  0
   -2.1960  -10.4630   16.5840 C   0  0  0  0  0  0  0  0  0  0  0  0
  1 19  1  0
  1 17  2  0
  3 10  2  0
  4  1  1  0
  5 16  4  0
  6 14  1  0
  7  3  1  0
  7  6  1  0
  8  4  1  0
  8 13  1  0
  9 13  2  0
  9 11  1  0
 10 15  4  0
 10 18  4  0
 11  7  2  0
 12 16  4  0
 14 18  2  0
 15  5  4  0
 16  2  1  0
 18 12  4  0
 19 13  1  0
 19  3  1  0
M  END
$$$$

     RDKit          3D

 37 41  0  0  0  0  0  0  0  0999 V2000
   -4.7200  -10.9280   20.8100 C   0  0  0  0  0  0  0  0  0  0  0  0
   -2.2910  -10.8720   15.1910 C   0  0  0  0  0  0  0  0  0  0  0  0
   -3.2830  -10.7490   20.3440 C   0  0  0  0  0  0  0  0  0  0  0  0
   -2.0710  -10.5900   16.7280 C   0  0  0  0  0  0  0  0  0  0  0  0
   -0.5920   -9.0950   14.6240 C   0  0  0  0  0  0  0  0  0  0  0  0
   -5.3910  -11.6290   15.9830 C   0  0  0  0  0  0  0  0  0  0  0  0
   -4.7570  -10.8840   24.4580 N   0  0  0  0  0  0  0  0  0  0  0  0
   -0.2600   -8.0690   15.3150 C   0  0  0  0  0  0  0  0  0  0  0  0
   -2.9220   -8.0260   23.9440 O   0  0  0  0  0  0  0  0  0  0  0  0
   -4.2550  -10.9120   23.1970 C   0  0  0  0  0  0  0  0  0  0  0  0
   -5.3920  -11.9660   20.7830 C   0  0  0  0  0  0  0  0  0  0  0  0
   -1.1590   -9.0970   20.9090 C   0  0  0  0  0  0  0  0  0  0  0  0
   -2.5440  -11.0090   17.8050 C   0  0  0  0  0  0  0  0  0  0  0  0
   -1.0570   -7.1440   17.6120 C   0  0  0  0  0  0  0  0  0  0  0  0
   -2.7400  -10.3090   23.3120 C   0  0  0  0  0  0  0  0  0  0  0  0
    0.4720   -8.5230   12.6470 C   0  0  0  0  0  0  0  0  0  0  0  0
    0.6630   -5.7780   15.2930 O   0  0  0  0  0  0  0  0  0  0  0  0
   -2.4380   -9.7210   21.1860 N   0  0  0  0  0  0  0  0  0  0  0  0
   -2.8360  -11.3320   18.9840 C   0  0  0  0  0  0  0  0  0  0  0  0
   -0.9350   -8.8140   24.1450 O   0  0  0  0  0  0  0  0  0  0  0  0
   -4.8760  -10.2040   22.1070 C   0  0  0  0  0  0  0  0  0  0  0  0
   -4.1270  -11.8110   17.9040 C   0  0  0  0  0  0  0  0  0  0  0  0
   -3.9030  -12.9360   17.4460 C   0  0  0  0  0  0  0  0  0  0  0  0
   -2.1420   -8.9440   23.8100 C   0  0  0  0  0  0  0  0  0  0  0  0
   -0.3760   -9.3900   13.3720 C   0  0  0  0  0  0  0  0  0  0  0  0
    0.0790   -9.6360   21.3630 C   0  0  0  0  0  0  0  0  0  0  0  0
   -1.1130   -7.5930   20.8090 C   0  0  0  0  0  0  0  0  0  0  0  0
   -2.0240  -10.6480   22.1670 C   0  0  0  0  0  0  0  0  0  0  0  0
    0.1720   -6.6280   16.6870 C   0  0  0  0  0  0  0  0  0  0  0  0
   -1.5740  -11.3080   14.0830 O   0  0  0  0  0  0  0  0  0  0  0  0
   -3.4200  -11.9380   15.1530 C   0  0  0  0  0  0  0  0  0  0  0  0
   -3.3670  -13.2830   15.0370 O   0  0  0  0  0  0  0  0  0  0  0  0
    0.4290   -6.9930   14.4730 C   0  0  0  0  0  0  0  0  0  0  0  0
   -4.1730  -11.7940   16.5220 C   0  0  0  0  0  0  0  0  0  0  0  0
    0.8920   -7.3160   13.1950 N   0  0  0  0  0  0  0  0  0  0  0  0
   -0.8500   -8.8000   15.9950 N   0  0  0  0  0  0  0  0  0  0  0  0
   -1.3450   -9.0120   17.0720 N   0  0  0  0  0  0  0  0  0  0  0  0
  1 21  1  0
  2 30  1  0
  2  4  1  0
  3  1  1  0
  3 18  1  0
  4 37  1  0
  4 13  1  0
  5  8  4  0
  5 36  1  0
  8 36  1  0
 10 15  1  0
 10  7  1  0
 11  1  2  0
 12 18  1  0
 12 26  1  0
 15 24  1  0
 16 35  4  0
 16 25  4  0
 17 29  1  0
 18 28  1  0
 19 13  1  0
 19  3  1  0
 21 10  1  0
 22 23  1  0
 22 19  1  0
 24  9  2  0
 24 20  1  0
 25  5  4  0
 27 12  1  0
 28 15  1  0
 29 14  1  0
 31 32  1  0
 31  2  1  0
 31 34  1  0
 33 17  1  0
 33  8  4  0
 34  6  1  0
 34 23  1  0
 34 22  1  0
 35 33  4  0
 36 37  1  0
M  END
$$$$

     RDKit          3D

 15 16  0  0  0  0  0  0  0  0999 V2000
   -1.3020  -10.5540   13.4750 N   0  0  0  0  0  0  0  0  0  0  0  0
   -0.7750   -9.0580   16.7710 C   0  0  0  0  0  0  0  0  0  0  0  0
   -2.4020  -11.1000   15.5880 C   0  0  0  0  0  0  0  0  0  0  0  0
   -3.4630  -11.4930   17.8760 C   0  0  0  0  0  0  0  0  0  0  0  0
   -3.4760  -11.2640   19.2600 N   0  0  0  0  0  0  0  0  0  0  0  0
   -4.3470  -12.3740   17.1890 C   0  0  0  0  0  0  0  0  0  0  0  0
   -3.2270  -11.4260   21.5840 O   0  0  0  0  0  0  0  0  0  0  0  0
   -0.5750   -9.4050   15.4170 C   0  0  0  0  0  0  0  0  0  0  0  0
   -2.6690  -11.5450   20.2790 C   0  0  0  0  0  0  0  0  0  0  0  0
   -4.2160  -12.6690   15.8460 C   0  0  0  0  0  0  0  0  0  0  0  0
   -1.4200  -10.3660   14.8080 C   0  0  0  0  0  0  0  0  0  0  0  0
   -3.2350  -12.0340   15.0100 N   0  0  0  0  0  0  0  0  0  0  0  0
   -4.4300  -10.4020   21.5440 C   0  0  0  0  0  0  0  0  0  0  0  0
   -2.5380  -10.7620   17.0380 C   0  0  0  0  0  0  0  0  0  0  0  0
   -1.7490   -9.7180   17.5610 C   0  0  0  0  0  0  0  0  0  0  0  0
  1 11  1  0
  2 15  4  0
  3 14  4  0
  4  5  1  0
  5  9  2  3
  6  4  4  0
  8  2  4  0
  9  7  1  0
 10  6  4  0
 11  8  4  0
 11  3  4  0
 12  3  4  0
 12 10  4  0
 13  7  1  0
 14 15  4  0
 14  4  4  0
M  END
$$$$

     RDKit          3D

 30 32  0  0  0  0  0  0  0  0999 V2000
   -1.7730   -9.4270   20.7290 C   0  0  0  0  0  0  0  0  0  0  0  0
   -4.1460  -12.6390   16.8230 S   0  0  0  0  0  0  0  0  0  0  0  0
   -3.4600  -11.8330   14.6070 N   0  0  0  0  0  0  0  0  0  0  0  0
   -0.9330   -4.8320   16.0360 O   0  0  0  0  0  0  0  0  0  0  0  0
   -5.6580  -12.2490   21.2410 N   0  0  0  0  0  0  0  0  0  0  0  0
   -5.0820  -10.1310   20.7840 O   0  0  0  0  0  0  0  0  0  0  0  0
   -1.3310   -9.9290   13.6770 N   0  0  0  0  0  0  0  0  0  0  0  0
   -3.2380  -11.2070   16.7610 C   0  0  0  0  0  0  0  0  0  0  0  0
   -1.1080   -9.9480   23.5570 C   0  0  0  0  0  0  0  0  0  0  0  0
   -4.2080  -12.7220   15.2530 C   0  0  0  0  0  0  0  0  0  0  0  0
   -1.1850  -10.7710   21.3530 C   0  0  0  0  0  0  0  0  0  0  0  0
   -2.9480  -10.3790   17.9350 C   0  0  0  0  0  0  0  0  0  0  0  0
   -1.0820   -9.1080   15.8480 O   0  0  0  0  0  0  0  0  0  0  0  0
   -0.3200   -3.5470   18.1320 C   0  0  0  0  0  0  0  0  0  0  0  0
   -1.3930   -8.3460   17.0530 C   0  0  0  0  0  0  0  0  0  0  0  0
   -1.3520   -7.0020   17.1650 N   0  0  0  0  0  0  0  0  0  0  0  0
   -0.7010  -10.9610   22.6930 C   0  0  0  0  0  0  0  0  0  0  0  0
    0.1420   -9.3500   23.5470 F   0  0  0  0  0  0  0  0  0  0  0  0
   -1.7670   -9.9720   15.0460 C   0  0  0  0  0  0  0  0  0  0  0  0
   -3.2640  -11.1220   19.1080 O   0  0  0  0  0  0  0  0  0  0  0  0
   -0.2970   -5.7250   16.9910 S   0  0  0  0  0  0  0  0  0  0  0  0
   -1.5930   -8.8770   23.0590 C   0  0  0  0  0  0  0  0  0  0  0  0
   -2.7770  -11.0020   15.4630 C   0  0  0  0  0  0  0  0  0  0  0  0
    0.8920   -6.3520   16.5230 O   0  0  0  0  0  0  0  0  0  0  0  0
   -1.1950   -9.1960   19.3620 C   0  0  0  0  0  0  0  0  0  0  0  0
    0.0750   -4.9670   18.2990 O   0  0  0  0  0  0  0  0  0  0  0  0
   -2.2590   -9.0600   18.1990 C   0  0  0  0  0  0  0  0  0  0  0  0
   -1.4030   -8.3340   21.7250 C   0  0  0  0  0  0  0  0  0  0  0  0
   -4.9830  -11.3320   20.4700 C   0  0  0  0  0  0  0  0  0  0  0  0
   -4.4370  -11.7740   19.3800 N   0  0  0  0  0  0  0  0  0  0  0  0
  1 25  1  0
  1 11  1  0
  1 28  1  0
  3 10  1  0
  3 23  2  0
  4 21  1  0
  8  2  1  0
  8 12  2  0
  9 18  1  0
 10  2  1  0
 11 17  1  0
 12 27  1  0
 12 20  1  0
 13 15  1  0
 14 26  1  0
 15 16  1  0
 15 27  1  0
 17  9  1  0
 19  7  1  0
 19 23  1  0
 19 13  1  0
 20 30  1  0
 21 16  1  0
 21 26  1  0
 22  9  1  0
 23  8  1  0
 24 21  1  0
 27 25  1  0
 28 22  1  0
 29  6  2  0
 29  5  1  0
 30 29  1  0
M  END
$$$$

     RDKit          3D

 27 29  0  0  0  0  0  0  0  0999 V2000
   -3.7260  -10.8520   15.5080 C   0  0  0  0  0  0  0  0  0  0  0  0
   -1.5880   -9.4600   18.0660 C   0  0  0  0  0  0  0  0  0  0  0  0
   -2.2800  -12.4220   16.4950 C   0  0  0  0  0  0  0  0  0  0  0  0
   -1.2470   -9.6630   14.2940 C   0  0  0  0  0  0  0  0  0  0  0  0
   -1.2490  -10.7550   22.6720 C   0  0  0  0  0  0  0  0  0  0  0  0
   -1.9680   -9.9940   19.4360 C   0  0  0  0  0  0  0  0  0  0  0  0
   -1.0130   -8.1350   18.1520 C   0  0  0  0  0  0  0  0  0  0  0  0
    0.2960   -7.8500   13.6810 C   0  0  0  0  0  0  0  0  0  0  0  0
   -3.5670  -11.3470   23.1210 O   0  0  0  0  0  0  0  0  0  0  0  0
   -1.7710  -10.0220   16.7790 C   0  0  0  0  0  0  0  0  0  0  0  0
    1.2620   -6.2600   15.3000 C   0  0  0  0  0  0  0  0  0  0  0  0
   -0.4940   -8.9630   13.3540 C   0  0  0  0  0  0  0  0  0  0  0  0
   -1.3430  -12.9450   17.1220 O   0  0  0  0  0  0  0  0  0  0  0  0
   -3.2270  -10.6700   19.6680 C   0  0  0  0  0  0  0  0  0  0  0  0
   -2.5230  -11.0720   16.3190 N   0  0  0  0  0  0  0  0  0  0  0  0
   -3.1140  -11.2100   20.7620 O   0  0  0  0  0  0  0  0  0  0  0  0
   -3.6000  -13.4650   16.1510 S   0  0  0  0  0  0  0  0  0  0  0  0
   -1.1950   -9.2340   15.7360 C   0  0  0  0  0  0  0  0  0  0  0  0
   -0.9500  -10.3560   21.5720 C   0  0  0  0  0  0  0  0  0  0  0  0
   -5.5460  -12.3840   15.1150 F   0  0  0  0  0  0  0  0  0  0  0  0
   -3.7410  -11.1990   22.0090 N   0  0  0  0  0  0  0  0  0  0  0  0
    0.3600   -7.4240   15.0120 C   0  0  0  0  0  0  0  0  0  0  0  0
   -4.3280  -12.0720   15.6500 C   0  0  0  0  0  0  0  0  0  0  0  0
   -4.8700  -11.7920   21.5650 O   0  0  0  0  0  0  0  0  0  0  0  0
   -0.4260   -8.0580   15.9940 C   0  0  0  0  0  0  0  0  0  0  0  0
   -0.3990   -7.5350   17.2800 N   0  0  0  0  0  0  0  0  0  0  0  0
   -0.9950   -9.8570   20.3730 C   0  0  0  0  0  0  0  0  0  0  0  0
  1 23  1  0
  1 15  1  0
  2  7  1  0
  2  6  1  0
  3 13  2  0
  6 14  1  0
  6 27  2  3
  8 22  2  0
 10  2  2  0
 12  8  1  0
 12  4  2  0
 14 16  1  0
 15  3  1  0
 15 10  1  0
 16 21  1  0
 17  3  1  0
 18  4  1  0
 18 25  1  0
 18 10  1  0
 19  5  3  0
 21  9  1  0
 22 11  1  0
 22 25  1  0
 23 20  1  0
 23 17  1  0
 24 21  2  0
 25 26  2  0
 26  7  1  0
 27 19  1  0
M  CHG  2   9  -1  21   1
M  END
$$$$

     RDKit          3D

 30 34  0  0  0  0  0  0  0  0999 V2000
   -4.3440  -13.0520   16.2470 C   0  0  0  0  0  0  0  0  0  0  0  0
    0.0720   -8.3470   12.8870 O   0  0  0  0  0  0  0  0  0  0  0  0
   -1.9510   -7.4120   19.9450 C   0  0  0  0  0  0  0  0  0  0  0  0
   -1.9940  -10.8830   21.2830 C   0  0  0  0  0  0  0  0  0  0  0  0
   -2.7380  -11.1020   22.5330 C   0  0  0  0  0  0  0  0  0  0  0  0
   -4.2140  -11.2730   22.0490 C   0  0  0  0  0  0  0  0  0  0  0  0
   -3.6300  -12.8040   15.3510 C   0  0  0  0  0  0  0  0  0  0  0  0
    0.3680   -8.2980   19.5090 O   0  0  0  0  0  0  0  0  0  0  0  0
   -1.1810   -9.7790   14.4230 C   0  0  0  0  0  0  0  0  0  0  0  0
   -2.7270  -12.1400   15.0090 N   0  0  0  0  0  0  0  0  0  0  0  0
   -0.1740   -7.6840   15.1400 C   0  0  0  0  0  0  0  0  0  0  0  0
    0.5520   -9.1040   11.7330 C   0  0  0  0  0  0  0  0  0  0  0  0
   -1.3000   -9.2140   16.9290 N   0  0  0  0  0  0  0  0  0  0  0  0
   -0.5300   -7.9430   16.4830 C   0  0  0  0  0  0  0  0  0  0  0  0
   -1.7510  -10.9130   23.5100 N   0  0  0  0  0  0  0  0  0  0  0  0
   -0.9120   -8.3850   19.4300 C   0  0  0  0  0  0  0  0  0  0  0  0
   -1.7240   -9.9740   15.7650 C   0  0  0  0  0  0  0  0  0  0  0  0
   -4.2860  -11.0660   20.6730 C   0  0  0  0  0  0  0  0  0  0  0  0
   -2.9260  -10.7790   20.2160 C   0  0  0  0  0  0  0  0  0  0  0  0
   -0.4430  -10.8360   22.9910 N   0  0  0  0  0  0  0  0  0  0  0  0
   -2.6380  -10.1590   18.9090 C   0  0  0  0  0  0  0  0  0  0  0  0
   -0.4060   -8.7080   14.0830 C   0  0  0  0  0  0  0  0  0  0  0  0
   -3.4690  -10.5330   17.8910 O   0  0  0  0  0  0  0  0  0  0  0  0
   -5.4320  -11.7350   22.7840 C   0  0  0  0  0  0  0  0  0  0  0  0
   -0.5960  -10.7310   21.6120 C   0  0  0  0  0  0  0  0  0  0  0  0
   -1.3380   -9.5560   18.4120 C   0  0  0  0  0  0  0  0  0  0  0  0
   -3.4450  -11.2050   16.9540 C   0  0  0  0  0  0  0  0  0  0  0  0
    0.6030   -6.6230   14.6720 O   0  0  0  0  0  0  0  0  0  0  0  0
   -4.3790  -12.1810   17.1600 C   0  0  0  0  0  0  0  0  0  0  0  0
   -2.5910  -11.1270   15.8020 C   0  0  0  0  0  0  0  0  0  0  0  0
  1 29  1  0
  2 22  1  0
  4 25  1  0
  4  5  1  0
  5 15  2  0
  6  5  1  0
  6 24  1  0
  7  1  1  0
  9 17  2  0
 10  7  1  0
 10 30  2  0
 11 14  1  0
 12  2  1  0
 13 26  1  0
 14 13  1  0
 16  8  1  0
 16  3  1  0
 17 30  1  0
 17 13  1  0
 18  6  2  0
 19 18  1  0
 19  4  2  0
 20 15  1  0
 21 19  1  0
 22  9  1  0
 22 11  2  0
 23 21  1  0
 25 20  2  0
 26 21  1  0
 26 16  1  0
 27 29  2  0
 27 23  1  0
 28 11  1  0
 30 27  1  0
M  END
$$$$

     RDKit          3D

 19 20  0  0  0  0  0  0  0  0999 V2000
   -4.7730  -11.5710   19.9510 C   0  0  0  0  0  0  0  0  0  0  0  0
   -1.4270   -8.9370   21.2860 O   0  0  0  0  0  0  0  0  0  0  0  0
   -3.7690  -11.8460   21.9540 O   0  0  0  0  0  0  0  0  0  0  0  0
   -2.2800  -11.5870   15.1540 N   0  0  0  0  0  0  0  0  0  0  0  0
   -0.7600   -9.9050   14.6820 C   0  0  0  0  0  0  0  0  0  0  0  0
   -3.6730  -11.3110   20.7140 C   0  0  0  0  0  0  0  0  0  0  0  0
   -1.8780  -10.9470   16.2770 C   0  0  0  0  0  0  0  0  0  0  0  0
   -3.5850  -12.1300   15.1310 C   0  0  0  0  0  0  0  0  0  0  0  0
   -0.8000  -10.0780   16.0120 O   0  0  0  0  0  0  0  0  0  0  0  0
   -2.5320  -11.1770   17.5710 C   0  0  0  0  0  0  0  0  0  0  0  0
   -0.5710   -7.7710   21.3230 C   0  0  0  0  0  0  0  0  0  0  0  0
   -3.8020  -11.8930   17.4870 C   0  0  0  0  0  0  0  0  0  0  0  0
   -4.6510  -12.1860   18.5650 C   0  0  0  0  0  0  0  0  0  0  0  0
   -0.9400  -10.9890   22.0490 O   0  0  0  0  0  0  0  0  0  0  0  0
   -2.0070  -10.5700   18.7810 C   0  0  0  0  0  0  0  0  0  0  0  0
   -1.1510   -9.7430   13.6430 O   0  0  0  0  0  0  0  0  0  0  0  0
   -2.4460  -10.6990   20.1690 C   0  0  0  0  0  0  0  0  0  0  0  0
   -1.5520  -10.2200   21.2000 C   0  0  0  0  0  0  0  0  0  0  0  0
   -4.2650  -12.3430   16.2100 C   0  0  0  0  0  0  0  0  0  0  0  0
  1  6  1  0
  2 11  1  0
  4  7  4  0
  5  9  1  0
  6  3  1  0
  7 10  4  0
  8  4  4  0
  8 19  4  0
  9  7  1  0
 10 15  1  0
 12 10  4  0
 12 13  1  0
 13  1  2  0
 15 17  2  0
 16  5  1  0
 17  6  1  0
 17 18  1  0
 18  2  1  0
 18 14  2  0
 19 12  4  0
M  END
$$$$

     RDKit          3D

 28 29  0  0  0  0  0  0  0  0999 V2000
   -2.5700   -9.7710   19.5330 C   0  0  0  0  0  0  0  0  0  0  0  0
   -3.1200  -10.8860   18.2480 C   0  0  0  0  0  0  0  0  0  0  0  0
   -5.7950  -12.0320   21.6670 O   0  0  0  0  0  0  0  0  0  0  0  0
   -0.6200   -9.5550   15.2590 C   0  0  0  0  0  0  0  0  0  0  0  0
   -2.3510  -10.9010   23.4680 O   0  0  0  0  0  0  0  0  0  0  0  0
   -2.7770  -10.5180   14.3580 C   0  0  0  0  0  0  0  0  0  0  0  0
   -3.8010  -12.1940   17.6540 C   0  0  0  0  0  0  0  0  0  0  0  0
   -0.4110   -8.6000   13.9150 N   0  0  0  0  0  0  0  0  0  0  0  0
   -3.5470  -12.2300   16.1190 C   0  0  0  0  0  0  0  0  0  0  0  0
   -0.4900  -10.1100   22.0850 C   0  0  0  0  0  0  0  0  0  0  0  0
    1.0630   -5.8540   12.4000 C   0  0  0  0  0  0  0  0  0  0  0  0
   -1.2810   -8.9740   18.8200 S   0  0  0  0  0  0  0  0  0  0  0  0
   -0.6960   -8.8300   16.3580 C   0  0  0  0  0  0  0  0  0  0  0  0
   -2.4120  -10.5050   22.0680 C   0  0  0  0  0  0  0  0  0  0  0  0
    0.0790   -9.0000   22.1600 O   0  0  0  0  0  0  0  0  0  0  0  0
   -1.5010   -9.3810   17.2780 C   0  0  0  0  0  0  0  0  0  0  0  0
   -0.9970  -11.0220   21.6070 O   0  0  0  0  0  0  0  0  0  0  0  0
   -4.0880  -11.9820   19.6990 C   0  0  0  0  0  0  0  0  0  0  0  0
    0.5730   -8.1550   13.0170 C   0  0  0  0  0  0  0  0  0  0  0  0
   -2.9170  -10.9030   15.6770 C   0  0  0  0  0  0  0  0  0  0  0  0
   -0.2080  -10.6190   15.0300 O   0  0  0  0  0  0  0  0  0  0  0  0
   -3.7030  -11.4750   21.4480 C   0  0  0  0  0  0  0  0  0  0  0  0
   -4.8270  -12.1640   15.5500 C   0  0  0  0  0  0  0  0  0  0  0  0
   -4.7910  -11.7620   21.0870 C   0  0  0  0  0  0  0  0  0  0  0  0
   -2.6770   -9.3320   21.0830 C   0  0  0  0  0  0  0  0  0  0  0  0
    0.8130   -6.7950   13.4170 O   0  0  0  0  0  0  0  0  0  0  0  0
    0.2890  -10.7810   23.2770 F   0  0  0  0  0  0  0  0  0  0  0  0
   -2.5430  -10.1670   16.9900 C   0  0  0  0  0  0  0  0  0  0  0  0
  1 25  1  0
  2  1  1  0
  4 13  1  0
  7  2  2  0
  8  4  1  0
  9 23  1  0
  9  7  1  0
 10 15  2  0
 10 27  1  0
 11 26  1  0
 12  1  1  0
 14  5  1  0
 16 13  1  0
 16 12  1  0
 17 14  1  0
 17 10  1  0
 18 24  1  0
 19 26  1  0
 19  8  1  0
 20  6  1  0
 20  9  1  0
 20 28  1  0
 21  4  2  0
 22 14  1  0
 24 22  1  0
 24  3  2  0
 25 14  1  0
 28 16  1  0
 28  2  1  0
M  END
$$$$

     RDKit          3D

 27 33  0  0  0  0  0  0  0  0999 V2000
   -0.7850   -9.2270   14.2450 C   0  0  0  0  0  0  0  0  0  0  0  0
   -1.8860   -9.8110   23.4680 N   0  0  0  0  0  0  0  0  0  0  0  0
   -1.6570  -10.1120   14.9010 C   0  0  0  0  0  0  0  0  0  0  0  0
   -0.0740   -9.9910   21.4190 C   0  0  0  0  0  0  0  0  0  0  0  0
   -3.7570  -11.8910   17.6810 C   0  0  0  0  0  0  0  0  0  0  0  0
   -2.3120  -11.2130   14.3450 N   0  0  0  0  0  0  0  0  0  0  0  0
   -3.5910  -11.7700   15.0120 C   0  0  0  0  0  0  0  0  0  0  0  0
   -3.5020  -11.0110   18.5810 C   0  0  0  0  0  0  0  0  0  0  0  0
   -0.8330   -9.1460   23.4510 C   0  0  0  0  0  0  0  0  0  0  0  0
   -3.2170  -12.1210   16.3860 C   0  0  0  0  0  0  0  0  0  0  0  0
   -4.9720  -11.6230   20.8210 C   0  0  0  0  0  0  0  0  0  0  0  0
   -2.1990  -10.5100   22.3410 C   0  0  0  0  0  0  0  0  0  0  0  0
   -1.7800   -9.6860   16.1770 N   0  0  0  0  0  0  0  0  0  0  0  0
   -0.6010   -8.1390   15.0800 C   0  0  0  0  0  0  0  0  0  0  0  0
    0.6710   -7.0070   13.3800 C   0  0  0  0  0  0  0  0  0  0  0  0
   -4.6160  -11.5330   22.2080 C   0  0  0  0  0  0  0  0  0  0  0  0
   -4.1540  -13.1650   15.6690 C   0  0  0  0  0  0  0  0  0  0  0  0
    0.6860   -8.2210   12.5250 C   0  0  0  0  0  0  0  0  0  0  0  0
   -3.7430  -11.2700   20.7390 C   0  0  0  0  0  0  0  0  0  0  0  0
    0.1730   -9.1920   22.4810 C   0  0  0  0  0  0  0  0  0  0  0  0
   -0.0520   -9.2970   13.0070 C   0  0  0  0  0  0  0  0  0  0  0  0
   -1.6620  -11.1280   20.1860 O   0  0  0  0  0  0  0  0  0  0  0  0
   -2.9300  -11.1480   19.8710 C   0  0  0  0  0  0  0  0  0  0  0  0
   -3.3910  -11.0080   22.0790 N   0  0  0  0  0  0  0  0  0  0  0  0
    0.0340   -6.9470   14.5100 C   0  0  0  0  0  0  0  0  0  0  0  0
   -1.1520   -8.3870   16.2840 C   0  0  0  0  0  0  0  0  0  0  0  0
   -1.3180  -10.5790   21.3300 C   0  0  0  0  0  0  0  0  0  0  0  0
  1  3  1  0
  1 14  4  0
  3 13  2  0
  4 20  4  0
  5  8  1  0
  6  3  1  0
  7  6  1  0
  7 17  1  0
  7 10  1  0
  9  2  4  0
 10  5  1  0
 12  2  4  0
 13 26  1  0
 14 26  1  0
 15 25  4  0
 16 11  1  0
 17 10  1  0
 18 21  4  0
 18 15  4  0
 19 11  1  0
 19 24  1  0
 19 16  1  0
 20  9  4  0
 21  1  4  0
 22 27  1  0
 23  8  1  0
 23 22  1  0
 23 19  1  0
 24 16  1  0
 24 12  1  0
 25 14  4  0
 27  4  4  0
 27 12  4  0
M  END
$$$$

     RDKit          3D

 24 26  0  0  0  0  0  0  0  0999 V2000
    0.7300   -5.6540   14.0760 N   0  0  0  0  0  0  0  0  0  0  0  0
   -1.0800   -9.8120   14.7960 N   0  0  0  0  0  0  0  0  0  0  0  0
   -0.6370  -10.9110   22.2510 C   0  0  0  0  0  0  0  0  0  0  0  0
   -1.7520   -9.3550   23.6740 N   0  0  0  0  0  0  0  0  0  0  0  0
   -0.6190  -10.0840   13.4000 C   0  0  0  0  0  0  0  0  0  0  0  0
    0.2290   -6.3940   15.0700 C   0  0  0  0  0  0  0  0  0  0  0  0
   -2.1030  -10.5770   21.7350 C   0  0  0  0  0  0  0  0  0  0  0  0
   -0.3870   -9.7360   23.1330 C   0  0  0  0  0  0  0  0  0  0  0  0
   -3.7600  -11.7580   17.0750 C   0  0  0  0  0  0  0  0  0  0  0  0
   -2.7550  -11.5490   14.8750 N   0  0  0  0  0  0  0  0  0  0  0  0
   -0.6400   -8.7440   15.5730 C   0  0  0  0  0  0  0  0  0  0  0  0
   -1.2320   -9.0910   16.8920 C   0  0  0  0  0  0  0  0  0  0  0  0
   -3.0880  -11.7800   21.4390 C   0  0  0  0  0  0  0  0  0  0  0  0
    0.1180   -7.7880   15.0130 N   0  0  0  0  0  0  0  0  0  0  0  0
   -0.9740   -8.5140   18.1970 C   0  0  0  0  0  0  0  0  0  0  0  0
   -3.1430  -10.5790   19.2700 C   0  0  0  0  0  0  0  0  0  0  0  0
   -3.6330  -12.1530   15.7820 C   0  0  0  0  0  0  0  0  0  0  0  0
   -3.8820  -11.5660   20.1310 C   0  0  0  0  0  0  0  0  0  0  0  0
   -2.0960  -10.1970   16.7790 C   0  0  0  0  0  0  0  0  0  0  0  0
   -0.0480   -5.6230   16.2280 C   0  0  0  0  0  0  0  0  0  0  0  0
   -1.9990  -10.5960   15.4390 C   0  0  0  0  0  0  0  0  0  0  0  0
   -2.7130  -10.1380   23.1190 C   0  0  0  0  0  0  0  0  0  0  0  0
   -2.9550  -10.8470   17.7410 C   0  0  0  0  0  0  0  0  0  0  0  0
   -4.7310  -12.3350   17.8540 O   0  0  0  0  0  0  0  0  0  0  0  0
  1  6  2  0
  2 21  4  0
  2 11  4  0
  3  8  1  0
  5  2  1  0
  6 20  1  0
  7 13  1  0
  7  3  1  0
  7 22  1  0
  8  4  1  0
  9 23  4  0
  9 24  1  0
 10 21  4  0
 10 17  4  0
 11 12  4  0
 12 15  1  0
 14  6  1  0
 14 11  1  0
 16 18  1  0
 17  9  4  0
 18 13  1  0
 19 12  4  0
 19 23  4  0
 21 19  4  0
 22  4  1  0
 23 16  1  0
M  END
$$$$

     RDKit          3D

 15 16  0  0  0  0  0  0  0  0999 V2000
   -4.2520  -12.8490   16.2610 C   0  0  0  0  0  0  0  0  0  0  0  0
   -2.1790   -9.8260   16.6330 C   0  0  0  0  0  0  0  0  0  0  0  0
   -2.3510  -10.9130   21.1720 C   0  0  0  0  0  0  0  0  0  0  0  0
   -0.5070  -11.4660   15.8310 C   0  0  0  0  0  0  0  0  0  0  0  0
   -4.3820  -11.5690   19.2920 C   0  0  0  0  0  0  0  0  0  0  0  0
   -3.4100  -11.7850   16.3430 C   0  0  0  0  0  0  0  0  0  0  0  0
   -4.5250  -11.7940   20.6450 C   0  0  0  0  0  0  0  0  0  0  0  0
   -2.2630  -10.4930   19.7940 C   0  0  0  0  0  0  0  0  0  0  0  0
   -1.4250   -9.8880   14.1900 C   0  0  0  0  0  0  0  0  0  0  0  0
   -3.5620  -11.4830   21.5890 C   0  0  0  0  0  0  0  0  0  0  0  0
   -1.7510  -10.7310   15.3990 C   0  0  0  0  0  0  0  0  0  0  0  0
   -1.2700  -10.5610   22.0950 N   0  0  0  0  0  0  0  0  0  0  0  0
   -2.6990  -11.5390   15.1500 N   0  0  0  0  0  0  0  0  0  0  0  0
   -2.9610  -10.8950   17.4160 C   0  0  0  0  0  0  0  0  0  0  0  0
   -3.2130  -10.9120   18.8680 C   0  0  0  0  0  0  0  0  0  0  0  0
  1  6  1  0
  2 14  1  0
  3 10  4  0
  3 12  1  0
  5  7  4  0
  6 14  1  0
  7 10  4  0
  8  3  4  0
  9 11  1  0
 11  4  1  0
 11  2  1  0
 13 11  1  0
 13  6  2  0
 14 15  1  0
 15  5  4  0
 15  8  4  0
M  END
$$$$

     RDKit          3D

 23 25  0  0  0  0  0  0  0  0999 V2000
   -1.9790   -9.9920   21.0910 C   0  0  0  0  0  0  0  0  0  0  0  0
   -2.7490  -10.9580   17.0730 C   0  0  0  0  0  0  0  0  0  0  0  0
   -2.3420  -10.8930   14.6440 C   0  0  0  0  0  0  0  0  0  0  0  0
   -3.3270  -11.8010   14.4390 N   0  0  0  0  0  0  0  0  0  0  0  0
   -4.9340  -11.6510   22.1110 C   0  0  0  0  0  0  0  0  0  0  0  0
   -2.9450  -10.8520   22.8360 N   0  0  0  0  0  0  0  0  0  0  0  0
   -2.5910  -10.4060   18.3730 C   0  0  0  0  0  0  0  0  0  0  0  0
   -3.7740  -11.0010   21.8240 N   0  0  0  0  0  0  0  0  0  0  0  0
   -0.6730  -10.8320   22.9090 C   0  0  0  0  0  0  0  0  0  0  0  0
   -1.7640  -10.2330   13.5820 N   0  0  0  0  0  0  0  0  0  0  0  0
   -3.2360  -10.5150   20.7110 C   0  0  0  0  0  0  0  0  0  0  0  0
   -1.8270   -7.9310   18.1760 C   0  0  0  0  0  0  0  0  0  0  0  0
   -1.8240  -10.4330   22.4160 C   0  0  0  0  0  0  0  0  0  0  0  0
   -3.4250  -10.9290   19.3260 C   0  0  0  0  0  0  0  0  0  0  0  0
   -3.7400  -12.0040   16.7880 C   0  0  0  0  0  0  0  0  0  0  0  0
   -5.4400  -12.5420   21.3580 O   0  0  0  0  0  0  0  0  0  0  0  0
   -2.0630   -6.8820   19.2760 C   0  0  0  0  0  0  0  0  0  0  0  0
   -1.5210   -9.3320   18.7220 C   0  0  0  0  0  0  0  0  0  0  0  0
   -1.0420   -9.6980   16.1490 O   0  0  0  0  0  0  0  0  0  0  0  0
   -2.0050  -10.5370   15.9910 C   0  0  0  0  0  0  0  0  0  0  0  0
   -1.0940   -9.2260   20.2150 C   0  0  0  0  0  0  0  0  0  0  0  0
   -5.3750  -11.4310   23.3550 N   0  0  0  0  0  0  0  0  0  0  0  0
   -4.0180  -12.3410   15.4990 C   0  0  0  0  0  0  0  0  0  0  0  0
  1 21  1  0
  1 13  1  0
  2  7  1  0
  3 20  4  0
  4  3  4  0
  4 23  4  0
  5 22  1  0
  7 18  1  0
  7 14  2  0
  8  5  1  0
  8  6  1  0
 10  3  1  0
 11 14  1  0
 11  1  1  0
 11  8  1  0
 12 17  1  0
 13  6  2  0
 13  9  1  0
 15  2  4  0
 16  5  2  0
 18 12  1  0
 18 21  1  0
 20 19  1  0
 20  2  4  0
 23 15  4  0
M  END
$$$$

     RDKit          3D

 36 41  0  0  0  0  0  0  0  0999 V2000
   -3.4440  -10.7150   19.2710 N   0  0  0  0  0  0  0  0  0  0  0  0
   -2.8550  -11.0290   14.4420 C   0  0  0  0  0  0  0  0  0  0  0  0
   -0.9430   -8.8500   16.5850 C   0  0  0  0  0  0  0  0  0  0  0  0
    0.2570   -7.5970   14.7110 C   0  0  0  0  0  0  0  0  0  0  0  0
   -2.2040   -8.8850   20.3640 C   0  0  0  0  0  0  0  0  0  0  0  0
   -1.6320  -10.8680   21.7330 O   0  0  0  0  0  0  0  0  0  0  0  0
   -0.5380  -10.2890   22.2930 C   0  0  0  0  0  0  0  0  0  0  0  0
   -1.2090   -9.4450   19.7260 O   0  0  0  0  0  0  0  0  0  0  0  0
   -2.0260  -10.3060   18.8930 C   0  0  0  0  0  0  0  0  0  0  0  0
   -2.2050   -7.5420   20.0600 C   0  0  0  0  0  0  0  0  0  0  0  0
   -0.7170  -10.0620   23.5870 O   0  0  0  0  0  0  0  0  0  0  0  0
    0.8910   -7.3010   13.5480 C   0  0  0  0  0  0  0  0  0  0  0  0
   -0.9060   -7.8650   21.7990 N   0  0  0  0  0  0  0  0  0  0  0  0
   -0.1450   -8.0570   16.8960 O   0  0  0  0  0  0  0  0  0  0  0  0
   -2.8540  -10.1830   16.6080 C   0  0  0  0  0  0  0  0  0  0  0  0
    0.6410  -10.3790   21.7680 F   0  0  0  0  0  0  0  0  0  0  0  0
   -3.5410  -11.4530   16.9960 C   0  0  0  0  0  0  0  0  0  0  0  0
   -0.4530   -9.4520   14.0430 C   0  0  0  0  0  0  0  0  0  0  0  0
    0.5090   -7.5810   22.0000 C   0  0  0  0  0  0  0  0  0  0  0  0
    0.8030   -8.1940   12.5560 C   0  0  0  0  0  0  0  0  0  0  0  0
   -5.7540  -11.7710   21.9980 C   0  0  0  0  0  0  0  0  0  0  0  0
   -2.0070   -9.4840   17.5190 C   0  0  0  0  0  0  0  0  0  0  0  0
   -3.4720  -12.3160   14.6780 N   0  0  0  0  0  0  0  0  0  0  0  0
    0.0300   -9.3160   12.8220 C   0  0  0  0  0  0  0  0  0  0  0  0
   -3.9870  -11.6150   18.3120 C   0  0  0  0  0  0  0  0  0  0  0  0
   -4.3980  -13.7310   16.2540 N   0  0  0  0  0  0  0  0  0  0  0  0
   -4.9400  -12.0520   23.0650 C   0  0  0  0  0  0  0  0  0  0  0  0
   -3.0300  -11.2990   21.7520 C   0  0  0  0  0  0  0  0  0  0  0  0
   -2.6210  -10.1800   15.3260 N   0  0  0  0  0  0  0  0  0  0  0  0
   -0.4970   -8.7220   15.0090 N   0  0  0  0  0  0  0  0  0  0  0  0
   -5.2310  -11.3020   20.8520 C   0  0  0  0  0  0  0  0  0  0  0  0
   -1.6410   -6.7410   21.1290 C   0  0  0  0  0  0  0  0  0  0  0  0
   -3.8630  -11.0720   20.6800 C   0  0  0  0  0  0  0  0  0  0  0  0
   -3.8470  -12.5620   15.8910 C   0  0  0  0  0  0  0  0  0  0  0  0
   -1.5050   -9.2600   21.6960 C   0  0  0  0  0  0  0  0  0  0  0  0
   -3.5860  -11.8590   22.9290 C   0  0  0  0  0  0  0  0  0  0  0  0
  1 33  1  0
  2 23  1  0
  2 29  1  0
  3 14  2  0
  4 30  1  0
  5 10  1  0
  5 35  1  0
  6 28  1  0
  6  7  1  0
  7 16  1  0
  7 11  1  0
  8  5  1  0
  9  1  1  0
  9  8  1  0
 10 32  1  0
 12  4  1  0
 13 19  1  0
 15 17  1  0
 15 22  1  0
 17 25  1  0
 18 30  1  0
 20 24  1  0
 20 12  2  0
 21 27  4  0
 22  3  1  0
 22  9  1  0
 23 34  2  0
 24 18  2  0
 25  1  1  0
 28 36  4  0
 29 15  2  0
 30  3  1  0
 31 21  4  0
 32 13  1  0
 33 31  4  0
 33 28  4  0
 34 26  1  0
 34 17  1  0
 35 13  1  0
 35  7  1  0
 36 27  4  0
M  END
$$$$
